New Transformer.mv_f0_lv_MERRIANG_P129 phases=1 windings=3 buses=[mv_f0_n1921.1.3 mv_f0_lv0_busbar.1.0 mv_f0_lv0_busbar.0.2] conns=[Delta Wye Wye] kVs=[22 0.25 0.25] kVAs=[50 50 50] xhl=2.46 %noloadloss=0.18 %loadloss=2.2 wdg=1 numtaps=4 tap=1.025 maxtap=1.137 mintap=1.028
New Transformer.mv_f0_lv_ANDREATTA_MAHADYS phases=1 windings=2 buses=[mv_f0_n527.1 mv_f0_lv1_busbar.1] conns=[Wye Wye] kVs=[22.0 0.433] kVAs=[10 10] xhl=2.46 %noloadloss=0.18 %loadloss=2.2 wdg=1 numtaps=4 tap=1.0 maxtap=1.137 mintap=1.028
New Transformer.mv_f0_lv_BROADFORD_P53E_ARKEL phases=1 windings=3 buses=[mv_f0_n1314.3.2 mv_f0_lv2_busbar.1.0 mv_f0_lv2_busbar.0.2] conns=[Delta Wye Wye] kVs=[22 0.25 0.25] kVAs=[10 10 10] xhl=2.46 %noloadloss=0.18 %loadloss=2.2 wdg=1 numtaps=4 tap=1.025 maxtap=1.137 mintap=1.028
New Transformer.mv_f0_lv_POULTON_WOODSIDE phases=1 windings=2 buses=[mv_f0_n2410.1 mv_f0_lv3_busbar.1] conns=[Wye Wye] kVs=[12.7 0.24] kVAs=[25 25] xhl=2.46 %noloadloss=0.18 %loadloss=2.2 wdg=1 numtaps=4 tap=0.975 maxtap=1.137 mintap=1.028
New Transformer.mv_f0_lv_SHAW_STOTTS phases=1 windings=3 buses=[mv_f0_n2556.1.3 mv_f0_lv4_busbar.1.0 mv_f0_lv4_busbar.0.2] conns=[Delta Wye Wye] kVs=[22 0.25 0.25] kVAs=[10 10 10] xhl=2.46 %noloadloss=0.18 %loadloss=2.2 wdg=1 numtaps=4 tap=1.0 maxtap=1.137 mintap=1.028
New Transformer.mv_f0_lv_ELIZABETH_3_MERRIANG phases=1 windings=3 buses=[mv_f0_n3551.3.1 mv_f0_lv5_busbar.1.0 mv_f0_lv5_busbar.0.2] conns=[Delta Wye Wye] kVs=[22 0.25 0.25] kVAs=[25 25 25] xhl=2.46 %noloadloss=0.18 %loadloss=2.2 wdg=1 numtaps=4 tap=1.025 maxtap=1.137 mintap=1.028
New Transformer.mv_f0_lv_WALKER_HOLTS phases=1 windings=2 buses=[mv_f0_n608.1 mv_f0_lv6_busbar.1] conns=[Wye Wye] kVs=[12.7 0.24] kVAs=[10 10] xhl=2.46 %noloadloss=0.18 %loadloss=2.2 wdg=1 numtaps=4 tap=0.975 maxtap=1.137 mintap=1.028
New Transformer.mv_f0_lv_EPPING_KILMORE_P351 phases=1 windings=3 buses=[mv_f0_n291.1.3 mv_f0_lv7_busbar.1.0 mv_f0_lv7_busbar.0.2] conns=[Delta Wye Wye] kVs=[22 0.25 0.25] kVAs=[10 10 10] xhl=2.46 %noloadloss=0.18 %loadloss=2.2 wdg=1 numtaps=4 tap=1.0 maxtap=1.137 mintap=1.028
New Transformer.mv_f0_lv_GRECH_12TH phases=1 windings=2 buses=[mv_f0_n22.1 mv_f0_lv8_busbar.1] conns=[Wye Wye] kVs=[12.7 0.24] kVAs=[10 10] xhl=2.46 %noloadloss=0.18 %loadloss=2.2 wdg=1 numtaps=4 tap=0.975 maxtap=1.137 mintap=1.028
New Transformer.mv_f0_lv_JANNA_GLENBURNIE phases=1 windings=3 buses=[mv_f0_n1386.3.1 mv_f0_lv9_busbar.1.0 mv_f0_lv9_busbar.0.2] conns=[Delta Wye Wye] kVs=[22 0.25 0.25] kVAs=[10 10 10] xhl=2.46 %noloadloss=0.18 %loadloss=2.2 wdg=1 numtaps=4 tap=1.025 maxtap=1.137 mintap=1.028
New Transformer.mv_f0_lv_WALLARA_WATER_BUKLND phases=3 windings=2 buses=[mv_f0_n2212 mv_f0_lv10_busbar] conns=[delta wye] kVs=[22.0 0.433] kVAs=[500 500] xhl=3.85 %noloadloss=0.12 %loadloss=1.3 wdg=1 numtaps=4 tap=1.0 maxtap=1.137 mintap=1.028
New Transformer.mv_f0_lv_FOURTH_AVE_32413 phases=3 windings=2 buses=[mv_f0_n2928 mv_f0_lv11_busbar] conns=[delta wye] kVs=[22.0 0.433] kVAs=[50 50] xhl=2.46 %noloadloss=0.18 %loadloss=2.2 wdg=1 numtaps=4 tap=1.025 maxtap=1.137 mintap=1.028
New Transformer.mv_f0_lv_MERRIANG_P119 phases=1 windings=3 buses=[mv_f0_n1994.1.3 mv_f0_lv12_busbar.1.0 mv_f0_lv12_busbar.0.2] conns=[Delta Wye Wye] kVs=[22 0.25 0.25] kVAs=[25 25 25] xhl=2.46 %noloadloss=0.18 %loadloss=2.2 wdg=1 numtaps=4 tap=1.025 maxtap=1.137 mintap=1.028
New Transformer.mv_f0_lv_JACAVOU_MAHADYS phases=1 windings=2 buses=[mv_f0_n609.1 mv_f0_lv13_busbar.1] conns=[Wye Wye] kVs=[22.0 0.433] kVAs=[10 10] xhl=2.46 %noloadloss=0.18 %loadloss=2.2 wdg=1 numtaps=4 tap=1.0 maxtap=1.137 mintap=1.028
New Transformer.mv_f0_lv_EPPING_KILMORE_P366 phases=1 windings=3 buses=[mv_f0_n1429.1.3 mv_f0_lv14_busbar.1.0 mv_f0_lv14_busbar.0.2] conns=[Delta Wye Wye] kVs=[22 0.25 0.25] kVAs=[25 25 25] xhl=2.46 %noloadloss=0.18 %loadloss=2.2 wdg=1 numtaps=4 tap=1.0 maxtap=1.137 mintap=1.028
New Transformer.mv_f0_lv_HILLIERS_14358 phases=1 windings=2 buses=[mv_f0_n3698.1 mv_f0_lv15_busbar.1] conns=[Wye Wye] kVs=[12.7 0.24] kVAs=[25 25] xhl=2.46 %noloadloss=0.18 %loadloss=2.2 wdg=1 numtaps=4 tap=0.975 maxtap=1.137 mintap=1.028
New Transformer.mv_f0_lv_MULES_GRANTS phases=1 windings=3 buses=[mv_f0_n1608.2.1 mv_f0_lv16_busbar.1.0 mv_f0_lv16_busbar.0.2] conns=[Delta Wye Wye] kVs=[22 0.25 0.25] kVAs=[10 10 10] xhl=2.46 %noloadloss=0.18 %loadloss=2.2 wdg=1 numtaps=4 tap=1.025 maxtap=1.137 mintap=1.028
New Transformer.mv_f0_lv_WEBB_SHERIDAN phases=1 windings=3 buses=[mv_f0_n3625.3.1 mv_f0_lv17_busbar.1.0 mv_f0_lv17_busbar.0.2] conns=[Delta Wye Wye] kVs=[22 0.25 0.25] kVAs=[10 10 10] xhl=2.46 %noloadloss=0.18 %loadloss=2.2 wdg=1 numtaps=4 tap=1.025 maxtap=1.137 mintap=1.028
New Transformer.mv_f0_lv_SIXTH_2_THIRD phases=1 windings=2 buses=[mv_f0_n2210.1 mv_f0_lv18_busbar.1] conns=[Wye Wye] kVs=[12.7 0.24] kVAs=[25 25] xhl=2.46 %noloadloss=0.18 %loadloss=2.2 wdg=1 numtaps=4 tap=0.975 maxtap=1.137 mintap=1.028
New Transformer.mv_f0_lv_WALLAN_RD_TOWTS phases=1 windings=3 buses=[mv_f0_n2393.1.3 mv_f0_lv19_busbar.1.0 mv_f0_lv19_busbar.0.2] conns=[Delta Wye Wye] kVs=[22 0.25 0.25] kVAs=[50 50 50] xhl=2.46 %noloadloss=0.18 %loadloss=2.2 wdg=1 numtaps=4 tap=1.025 maxtap=1.137 mintap=1.028
New Transformer.mv_f0_lv_MCDONALD10_BONNEVIEW phases=1 windings=3 buses=[mv_f0_n2383.2.3 mv_f0_lv20_busbar.1.0 mv_f0_lv20_busbar.0.2] conns=[Delta Wye Wye] kVs=[22 0.25 0.25] kVAs=[10 10 10] xhl=2.46 %noloadloss=0.18 %loadloss=2.2 wdg=1 numtaps=4 tap=1.025 maxtap=1.137 mintap=1.028
New Transformer.mv_f0_lv_ROSEBLADE_HOLTS phases=1 windings=2 buses=[mv_f0_n693.1 mv_f0_lv21_busbar.1] conns=[Wye Wye] kVs=[12.7 0.24] kVAs=[10 10] xhl=2.46 %noloadloss=0.18 %loadloss=2.2 wdg=1 numtaps=4 tap=0.975 maxtap=1.137 mintap=1.028
New Transformer.mv_f0_lv_MOUNTAIN_JUNCTION phases=1 windings=3 buses=[mv_f0_n2540.3.1 mv_f0_lv22_busbar.1.0 mv_f0_lv22_busbar.0.2] conns=[Delta Wye Wye] kVs=[22 0.25 0.25] kVAs=[25 25 25] xhl=2.46 %noloadloss=0.18 %loadloss=2.2 wdg=1 numtaps=4 tap=1.0 maxtap=1.137 mintap=1.028
New Transformer.mv_f0_lv_MCDONALD_P17_BON phases=1 windings=3 buses=[mv_f0_n2584.2.3 mv_f0_lv23_busbar.1.0 mv_f0_lv23_busbar.0.2] conns=[Delta Wye Wye] kVs=[22 0.25 0.25] kVAs=[25 25 25] xhl=2.46 %noloadloss=0.18 %loadloss=2.2 wdg=1 numtaps=4 tap=1.025 maxtap=1.137 mintap=1.028
New Transformer.mv_f0_lv_VALLEY_1_WILLIAM phases=3 windings=2 buses=[mv_f0_n236 mv_f0_lv24_busbar] conns=[delta wye] kVs=[22.0 0.433] kVAs=[100 100] xhl=3.6 %noloadloss=0.145 %loadloss=1.75 wdg=1 numtaps=4 tap=1.0 maxtap=1.137 mintap=1.028
New Transformer.mv_f0_lv_HYNDMAN_WILDWOOD phases=3 windings=2 buses=[mv_f0_n3525 mv_f0_lv25_busbar] conns=[delta wye] kVs=[22.0 0.433] kVAs=[25 25] xhl=2.46 %noloadloss=0.18 %loadloss=2.2 wdg=1 numtaps=4 tap=1.025 maxtap=1.137 mintap=1.028
New Transformer.mv_f0_lv_MERRIANG_P190 phases=3 windings=2 buses=[mv_f0_n1505 mv_f0_lv26_busbar] conns=[delta wye] kVs=[22.0 0.433] kVAs=[25 25] xhl=2.46 %noloadloss=0.18 %loadloss=2.2 wdg=1 numtaps=4 tap=1.025 maxtap=1.137 mintap=1.028
New Transformer.mv_f0_lv_MARSDEN_WALLAN_WHITT phases=1 windings=3 buses=[mv_f0_n94.1.3 mv_f0_lv27_busbar.1.0 mv_f0_lv27_busbar.0.2] conns=[Delta Wye Wye] kVs=[22 0.25 0.25] kVAs=[10 10 10] xhl=2.46 %noloadloss=0.18 %loadloss=2.2 wdg=1 numtaps=4 tap=1.025 maxtap=1.137 mintap=1.028
New Transformer.mv_f0_lv_SEVENTEENTH_KYLIE phases=1 windings=3 buses=[mv_f0_n2302.1.3 mv_f0_lv28_busbar.1.0 mv_f0_lv28_busbar.0.2] conns=[Delta Wye Wye] kVs=[22 0.25 0.25] kVAs=[25 25 25] xhl=2.46 %noloadloss=0.18 %loadloss=2.2 wdg=1 numtaps=4 tap=1.025 maxtap=1.137 mintap=1.028
New Transformer.mv_f0_lv_FOURTH_AVE_32414 phases=3 windings=2 buses=[mv_f0_n2028 mv_f0_lv29_busbar] conns=[delta wye] kVs=[22.0 0.433] kVAs=[63 63] xhl=3.6 %noloadloss=0.145 %loadloss=1.75 wdg=1 numtaps=4 tap=1.025 maxtap=1.137 mintap=1.028
New Transformer.mv_f0_lv_GLENBURNIE_P4_WALLAN phases=1 windings=3 buses=[mv_f0_n2541.3.2 mv_f0_lv30_busbar.1.0 mv_f0_lv30_busbar.0.2] conns=[Delta Wye Wye] kVs=[22 0.25 0.25] kVAs=[25 25 25] xhl=2.46 %noloadloss=0.18 %loadloss=2.2 wdg=1 numtaps=4 tap=1.025 maxtap=1.137 mintap=1.028
New Transformer.mv_f0_lv_STATION_RAIL phases=1 windings=3 buses=[mv_f0_n3448.2.3 mv_f0_lv31_busbar.1.0 mv_f0_lv31_busbar.0.2] conns=[Delta Wye Wye] kVs=[22 0.25 0.25] kVAs=[50 50 50] xhl=2.46 %noloadloss=0.18 %loadloss=2.2 wdg=1 numtaps=4 tap=1.025 maxtap=1.137 mintap=1.028
New Transformer.mv_f0_lv_MERRIANG_P115 phases=1 windings=3 buses=[mv_f0_n2082.1.3 mv_f0_lv32_busbar.1.0 mv_f0_lv32_busbar.0.2] conns=[Delta Wye Wye] kVs=[22 0.25 0.25] kVAs=[10 10 10] xhl=2.46 %noloadloss=0.18 %loadloss=2.2 wdg=1 numtaps=4 tap=1.025 maxtap=1.137 mintap=1.028
New Transformer.mv_f0_lv_CLARK_WALLAN_WHITT phases=1 windings=2 buses=[mv_f0_n697.1 mv_f0_lv33_busbar.1] conns=[Wye Wye] kVs=[22.0 0.433] kVAs=[10 10] xhl=2.46 %noloadloss=0.18 %loadloss=2.2 wdg=1 numtaps=4 tap=1.0 maxtap=1.137 mintap=1.028
New Transformer.mv_f0_lv_EPPING_KILMORE_P357 phases=1 windings=3 buses=[mv_f0_n1542.1.3 mv_f0_lv34_busbar.1.0 mv_f0_lv34_busbar.0.2] conns=[Delta Wye Wye] kVs=[22 0.25 0.25] kVAs=[10 10 10] xhl=2.46 %noloadloss=0.18 %loadloss=2.2 wdg=1 numtaps=4 tap=1.0 maxtap=1.137 mintap=1.028
New Transformer.mv_f0_lv_JENKINS_BOWDEN phases=1 windings=2 buses=[mv_f0_n3683.1 mv_f0_lv35_busbar.1] conns=[Wye Wye] kVs=[22.0 0.433] kVAs=[20 20] xhl=2.46 %noloadloss=0.18 %loadloss=2.2 wdg=1 numtaps=4 tap=1.0 maxtap=1.137 mintap=1.028
New Transformer.mv_f0_lv_BRUCES_CREEK_N20 phases=1 windings=2 buses=[mv_f0_n3267.1 mv_f0_lv36_busbar.1] conns=[Wye Wye] kVs=[12.7 0.24] kVAs=[25 25] xhl=2.46 %noloadloss=0.18 %loadloss=2.2 wdg=1 numtaps=4 tap=0.975 maxtap=1.137 mintap=1.028
New Transformer.mv_f0_lv_HENDERSON_1_WOODSIDE phases=1 windings=2 buses=[mv_f0_n3704.1 mv_f0_lv37_busbar.1] conns=[Wye Wye] kVs=[12.7 0.24] kVAs=[10 10] xhl=2.46 %noloadloss=0.18 %loadloss=2.2 wdg=1 numtaps=4 tap=0.975 maxtap=1.137 mintap=1.028
New Transformer.mv_f0_lv_KEENAN_HILLIERS phases=1 windings=2 buses=[mv_f0_n50.1 mv_f0_lv38_busbar.1] conns=[Wye Wye] kVs=[12.7 0.24] kVAs=[10 10] xhl=2.46 %noloadloss=0.18 %loadloss=2.2 wdg=1 numtaps=4 tap=0.975 maxtap=1.137 mintap=1.028
New Transformer.mv_f0_lv_BERZINSKI_UPPER_PLEN phases=1 windings=2 buses=[mv_f0_n3247.1 mv_f0_lv39_busbar.1] conns=[Wye Wye] kVs=[12.7 0.24] kVAs=[10 10] xhl=2.46 %noloadloss=0.18 %loadloss=2.2 wdg=1 numtaps=4 tap=0.975 maxtap=1.137 mintap=1.028
New Transformer.mv_f0_lv_BRAEMORE_2_NTH_RIDGE phases=1 windings=3 buses=[mv_f0_n1230.3.1 mv_f0_lv40_busbar.1.0 mv_f0_lv40_busbar.0.2] conns=[Delta Wye Wye] kVs=[22 0.25 0.25] kVAs=[25 25 25] xhl=2.46 %noloadloss=0.18 %loadloss=2.2 wdg=1 numtaps=4 tap=1.025 maxtap=1.137 mintap=1.028
New Transformer.mv_f0_lv_MERRIANG_P182 phases=1 windings=3 buses=[mv_f0_n1607.1.3 mv_f0_lv41_busbar.1.0 mv_f0_lv41_busbar.0.2] conns=[Delta Wye Wye] kVs=[22 0.25 0.25] kVAs=[16 16 16] xhl=2.46 %noloadloss=0.18 %loadloss=2.2 wdg=1 numtaps=4 tap=1.025 maxtap=1.137 mintap=1.028
New Transformer.mv_f0_lv_FOURTH_AVE_32416 phases=3 windings=2 buses=[mv_f0_n2036 mv_f0_lv42_busbar] conns=[delta wye] kVs=[22.0 0.433] kVAs=[63 63] xhl=3.6 %noloadloss=0.145 %loadloss=1.75 wdg=1 numtaps=4 tap=1.025 maxtap=1.137 mintap=1.028
New Transformer.mv_f0_lv_EPPING_KILMORE_P330 phases=1 windings=3 buses=[mv_f0_n2897.1.3 mv_f0_lv43_busbar.1.0 mv_f0_lv43_busbar.0.2] conns=[Delta Wye Wye] kVs=[22 0.25 0.25] kVAs=[10 10 10] xhl=2.46 %noloadloss=0.18 %loadloss=2.2 wdg=1 numtaps=4 tap=1.0 maxtap=1.137 mintap=1.028
New Transformer.mv_f0_lv_MCDONALD_BROADFORD phases=1 windings=3 buses=[mv_f0_n1646.1.3 mv_f0_lv44_busbar.1.0 mv_f0_lv44_busbar.0.2] conns=[Delta Wye Wye] kVs=[22 0.25 0.25] kVAs=[25 25 25] xhl=2.46 %noloadloss=0.18 %loadloss=2.2 wdg=1 numtaps=4 tap=1.0 maxtap=1.137 mintap=1.028
New Transformer.mv_f0_lv_SHERIDAN_GRANTS_1N phases=1 windings=3 buses=[mv_f0_n3795.3.1 mv_f0_lv45_busbar.1.0 mv_f0_lv45_busbar.0.2] conns=[Delta Wye Wye] kVs=[22 0.25 0.25] kVAs=[10 10 10] xhl=2.46 %noloadloss=0.18 %loadloss=2.2 wdg=1 numtaps=4 tap=1.025 maxtap=1.137 mintap=1.028
New Transformer.mv_f0_lv_HILLIERS_GORDON phases=1 windings=2 buses=[mv_f0_n122.1 mv_f0_lv46_busbar.1] conns=[Wye Wye] kVs=[12.7 0.24] kVAs=[10 10] xhl=2.46 %noloadloss=0.18 %loadloss=2.2 wdg=1 numtaps=4 tap=0.975 maxtap=1.137 mintap=1.028
New Transformer.mv_f0_lv_WOOSNAM_LORDS phases=1 windings=2 buses=[mv_f0_n3320.1 mv_f0_lv47_busbar.1] conns=[Wye Wye] kVs=[22.0 0.433] kVAs=[10 10] xhl=2.46 %noloadloss=0.18 %loadloss=2.2 wdg=1 numtaps=4 tap=1.0 maxtap=1.137 mintap=1.028
New Transformer.mv_f0_lv_MUNTS_HARRINGTON phases=1 windings=2 buses=[mv_f0_n2508.1 mv_f0_lv48_busbar.1] conns=[Wye Wye] kVs=[12.7 0.24] kVAs=[10 10] xhl=2.46 %noloadloss=0.18 %loadloss=2.2 wdg=1 numtaps=4 tap=0.975 maxtap=1.137 mintap=1.028
New Transformer.mv_f0_lv_MERRIANG_P171 phases=1 windings=3 buses=[mv_f0_n1714.1.3 mv_f0_lv49_busbar.1.0 mv_f0_lv49_busbar.0.2] conns=[Delta Wye Wye] kVs=[22 0.25 0.25] kVAs=[25 25 25] xhl=2.46 %noloadloss=0.18 %loadloss=2.2 wdg=1 numtaps=4 tap=1.025 maxtap=1.137 mintap=1.028
New Transformer.mv_f0_lv_FOURTH_AVE_32417 phases=3 windings=2 buses=[mv_f0_n1717 mv_f0_lv50_busbar] conns=[delta wye] kVs=[22.0 0.433] kVAs=[63 63] xhl=3.6 %noloadloss=0.145 %loadloss=1.75 wdg=1 numtaps=4 tap=1.025 maxtap=1.137 mintap=1.028
New Transformer.mv_f0_lv_CLEEVE_P8_WALLAN phases=1 windings=3 buses=[mv_f0_n3006.1.3 mv_f0_lv51_busbar.1.0 mv_f0_lv51_busbar.0.2] conns=[Delta Wye Wye] kVs=[22 0.25 0.25] kVAs=[10 10 10] xhl=2.46 %noloadloss=0.18 %loadloss=2.2 wdg=1 numtaps=4 tap=1.0 maxtap=1.137 mintap=1.028
New Transformer.mv_f0_lv_BROADFORD_WALLAN_402 phases=3 windings=2 buses=[mv_f0_n2578 mv_f0_lv52_busbar] conns=[delta wye] kVs=[22.0 0.433] kVAs=[200 200] xhl=3.78 %noloadloss=0.13125 %loadloss=1.46875 wdg=1 numtaps=4 tap=1.025 maxtap=1.137 mintap=1.028
New Transformer.mv_f0_lv_WALLAN_GLENBURNIE phases=3 windings=2 buses=[mv_f0_n2404 mv_f0_lv53_busbar] conns=[delta wye] kVs=[22.0 0.433] kVAs=[50 50] xhl=2.46 %noloadloss=0.18 %loadloss=2.2 wdg=1 numtaps=4 tap=1.025 maxtap=1.137 mintap=1.028
New Transformer.mv_f0_lv_EUCALYPT_STATION phases=3 windings=2 buses=[mv_f0_n1506 mv_f0_lv54_busbar] conns=[delta wye] kVs=[22.0 0.433] kVAs=[50 50] xhl=2.46 %noloadloss=0.18 %loadloss=2.2 wdg=1 numtaps=4 tap=1.025 maxtap=1.137 mintap=1.028
New Transformer.mv_f0_lv_HOLTS_T5A_CONICALH phases=1 windings=2 buses=[mv_f0_n3053.1 mv_f0_lv55_busbar.1] conns=[Wye Wye] kVs=[12.7 0.24] kVAs=[25 25] xhl=2.46 %noloadloss=0.18 %loadloss=2.2 wdg=1 numtaps=4 tap=0.975 maxtap=1.137 mintap=1.028
New Transformer.mv_f0_lv_GRAHAM_18TH phases=1 windings=2 buses=[mv_f0_n2220.1 mv_f0_lv56_busbar.1] conns=[Wye Wye] kVs=[12.7 0.24] kVAs=[25 25] xhl=2.46 %noloadloss=0.18 %loadloss=2.2 wdg=1 numtaps=4 tap=0.975 maxtap=1.137 mintap=1.028
New Transformer.mv_f0_lv_BROADFORD_JUTSON phases=1 windings=3 buses=[mv_f0_n1750.3.2 mv_f0_lv57_busbar.1.0 mv_f0_lv57_busbar.0.2] conns=[Delta Wye Wye] kVs=[22 0.25 0.25] kVAs=[10 10 10] xhl=2.46 %noloadloss=0.18 %loadloss=2.2 wdg=1 numtaps=4 tap=1.025 maxtap=1.137 mintap=1.028
New Transformer.mv_f0_lv_GARDINER_WALLAN_WHIT phases=1 windings=2 buses=[mv_f0_n97.1 mv_f0_lv58_busbar.1] conns=[Wye Wye] kVs=[22.0 0.433] kVAs=[10 10] xhl=2.46 %noloadloss=0.18 %loadloss=2.2 wdg=1 numtaps=4 tap=1.0 maxtap=1.137 mintap=1.028
New Transformer.mv_f0_lv_MERRIANG_P163 phases=3 windings=2 buses=[mv_f0_n43 mv_f0_lv59_busbar] conns=[delta wye] kVs=[22.0 0.433] kVAs=[25 25] xhl=2.46 %noloadloss=0.18 %loadloss=2.2 wdg=1 numtaps=4 tap=1.025 maxtap=1.137 mintap=1.028
New Transformer.mv_f0_lv_BLUE_LAKE_BUCKLAND phases=3 windings=2 buses=[mv_f0_n2008 mv_f0_lv60_busbar] conns=[delta wye] kVs=[22.0 0.433] kVAs=[500 500] xhl=3.85 %noloadloss=0.12 %loadloss=1.3 wdg=1 numtaps=4 tap=1.0 maxtap=1.137 mintap=1.028
New Transformer.mv_f0_lv_AKOONAH_HOLTS phases=1 windings=2 buses=[mv_f0_n208.1 mv_f0_lv61_busbar.1] conns=[Wye Wye] kVs=[12.7 0.24] kVAs=[10 10] xhl=2.46 %noloadloss=0.18 %loadloss=2.2 wdg=1 numtaps=4 tap=0.975 maxtap=1.137 mintap=1.028
New Transformer.mv_f0_lv_FOY_HILLIERS phases=1 windings=2 buses=[mv_f0_n3400.1 mv_f0_lv62_busbar.1] conns=[Wye Wye] kVs=[12.7 0.24] kVAs=[10 10] xhl=2.46 %noloadloss=0.18 %loadloss=2.2 wdg=1 numtaps=4 tap=0.975 maxtap=1.137 mintap=1.028
New Transformer.mv_f0_lv_SEVENTH_P1E_GLENBURN phases=1 windings=3 buses=[mv_f0_n3597.3.1 mv_f0_lv63_busbar.1.0 mv_f0_lv63_busbar.0.2] conns=[Delta Wye Wye] kVs=[22 0.25 0.25] kVAs=[10 10 10] xhl=2.46 %noloadloss=0.18 %loadloss=2.2 wdg=1 numtaps=4 tap=1.025 maxtap=1.137 mintap=1.028
New Transformer.mv_f0_lv_DAVIS_WALLAN_WHITT phases=1 windings=2 buses=[mv_f0_n2580.1 mv_f0_lv64_busbar.1] conns=[Wye Wye] kVs=[12.7 0.24] kVAs=[10 10] xhl=2.46 %noloadloss=0.18 %loadloss=2.2 wdg=1 numtaps=4 tap=0.975 maxtap=1.137 mintap=1.028
New Transformer.mv_f0_lv_ELIZABETH_2_MERRIANG phases=3 windings=2 buses=[mv_f0_n1805 mv_f0_lv65_busbar] conns=[delta wye] kVs=[22.0 0.433] kVAs=[25 25] xhl=2.46 %noloadloss=0.18 %loadloss=2.2 wdg=1 numtaps=4 tap=1.025 maxtap=1.137 mintap=1.028
New Transformer.mv_f0_lv_LIDDELL_SCANLONS_2 phases=1 windings=3 buses=[mv_f0_n3813.1.3 mv_f0_lv66_busbar.1.0 mv_f0_lv66_busbar.0.2] conns=[Delta Wye Wye] kVs=[22 0.25 0.25] kVAs=[25 25 25] xhl=2.46 %noloadloss=0.18 %loadloss=2.2 wdg=1 numtaps=4 tap=1.0 maxtap=1.137 mintap=1.028
New Transformer.mv_f0_lv_FOURTH_AVE_32419 phases=3 windings=2 buses=[mv_f0_n1721 mv_f0_lv67_busbar] conns=[delta wye] kVs=[22.0 0.433] kVAs=[63 63] xhl=3.6 %noloadloss=0.145 %loadloss=1.75 wdg=1 numtaps=4 tap=1.025 maxtap=1.137 mintap=1.028
New Transformer.mv_f0_lv_DONNYBRK-LANGLEY_PK phases=3 windings=2 buses=[mv_f0_n2118 mv_f0_lv68_busbar] conns=[delta wye] kVs=[22.0 0.433] kVAs=[50 50] xhl=2.46 %noloadloss=0.18 %loadloss=2.2 wdg=1 numtaps=4 tap=1.0 maxtap=1.137 mintap=1.028
New Transformer.mv_f0_lv_LIVESAY_STH_MOUNTAIN phases=1 windings=3 buses=[mv_f0_n3114.2.3 mv_f0_lv69_busbar.1.0 mv_f0_lv69_busbar.0.2] conns=[Delta Wye Wye] kVs=[22 0.25 0.25] kVAs=[10 10 10] xhl=2.46 %noloadloss=0.18 %loadloss=2.2 wdg=1 numtaps=4 tap=1.025 maxtap=1.137 mintap=1.028
New Transformer.mv_f0_lv_LEA_17TH phases=1 windings=2 buses=[mv_f0_n1703.1 mv_f0_lv70_busbar.1] conns=[Wye Wye] kVs=[12.7 0.24] kVAs=[25 25] xhl=2.46 %noloadloss=0.18 %loadloss=2.2 wdg=1 numtaps=4 tap=1.0 maxtap=1.137 mintap=1.028
New Transformer.mv_f0_lv_BROADFORD_GULLI phases=3 windings=2 buses=[mv_f0_n3321 mv_f0_lv71_busbar] conns=[delta wye] kVs=[22.0 0.433] kVAs=[50 50] xhl=2.46 %noloadloss=0.18 %loadloss=2.2 wdg=1 numtaps=4 tap=1.0 maxtap=1.137 mintap=1.028
New Transformer.mv_f0_lv_DONNYBROOK_P104A phases=1 windings=3 buses=[mv_f0_n2387.2.3 mv_f0_lv72_busbar.1.0 mv_f0_lv72_busbar.0.2] conns=[Delta Wye Wye] kVs=[22 0.25 0.25] kVAs=[10 10 10] xhl=2.46 %noloadloss=0.18 %loadloss=2.2 wdg=1 numtaps=4 tap=1.025 maxtap=1.137 mintap=1.028
New Transformer.mv_f0_lv_CONDURSO_BROADFORD phases=1 windings=3 buses=[mv_f0_n1846.3.2 mv_f0_lv73_busbar.1.0 mv_f0_lv73_busbar.0.2] conns=[Delta Wye Wye] kVs=[22 0.25 0.25] kVAs=[10 10 10] xhl=2.46 %noloadloss=0.18 %loadloss=2.2 wdg=1 numtaps=4 tap=1.025 maxtap=1.137 mintap=1.028
New Transformer.mv_f0_lv_MERRIANG_P157 phases=1 windings=3 buses=[mv_f0_n118.1.3 mv_f0_lv74_busbar.1.0 mv_f0_lv74_busbar.0.2] conns=[Delta Wye Wye] kVs=[22 0.25 0.25] kVAs=[25 25 25] xhl=2.46 %noloadloss=0.18 %loadloss=2.2 wdg=1 numtaps=4 tap=1.025 maxtap=1.137 mintap=1.028
New Transformer.mv_f0_lv_WARBURTON_HOLTS phases=1 windings=2 buses=[mv_f0_n292.1 mv_f0_lv75_busbar.1] conns=[Wye Wye] kVs=[12.7 0.24] kVAs=[25 25] xhl=2.46 %noloadloss=0.18 %loadloss=2.2 wdg=1 numtaps=4 tap=0.975 maxtap=1.137 mintap=1.028
New Transformer.mv_f0_lv_SNELSON_BRUCES_CK phases=1 windings=2 buses=[mv_f0_n3490.1 mv_f0_lv76_busbar.1] conns=[Wye Wye] kVs=[12.7 0.24] kVAs=[10 10] xhl=2.46 %noloadloss=0.18 %loadloss=2.2 wdg=1 numtaps=4 tap=0.975 maxtap=1.137 mintap=1.028
New Transformer.mv_f0_lv_SEVENTH_GLENBURNIE_1 phases=1 windings=3 buses=[mv_f0_n3677.3.1 mv_f0_lv77_busbar.1.0 mv_f0_lv77_busbar.0.2] conns=[Delta Wye Wye] kVs=[22 0.25 0.25] kVAs=[10 10 10] xhl=2.46 %noloadloss=0.18 %loadloss=2.2 wdg=1 numtaps=4 tap=1.025 maxtap=1.137 mintap=1.028
New Transformer.mv_f0_lv_TWENTYFIRST_13TH phases=1 windings=2 buses=[mv_f0_n2654.1 mv_f0_lv78_busbar.1] conns=[Wye Wye] kVs=[12.7 0.24] kVAs=[10 10] xhl=2.46 %noloadloss=0.18 %loadloss=2.2 wdg=1 numtaps=4 tap=1.0 maxtap=1.137 mintap=1.028
New Transformer.mv_f0_lv_ELIZABETH_MERRIANG phases=1 windings=3 buses=[mv_f0_n1903.3.1 mv_f0_lv79_busbar.1.0 mv_f0_lv79_busbar.0.2] conns=[Delta Wye Wye] kVs=[22 0.25 0.25] kVAs=[10 10 10] xhl=2.46 %noloadloss=0.18 %loadloss=2.2 wdg=1 numtaps=4 tap=1.025 maxtap=1.137 mintap=1.028
New Transformer.mv_f0_lv_CLARKES_GIBBS phases=1 windings=2 buses=[mv_f0_n3297.1 mv_f0_lv80_busbar.1] conns=[Wye Wye] kVs=[12.7 0.24] kVAs=[25 25] xhl=2.46 %noloadloss=0.18 %loadloss=2.2 wdg=1 numtaps=4 tap=0.975 maxtap=1.137 mintap=1.028
New Transformer.mv_f0_lv_CIMINO_BROADFORD phases=1 windings=3 buses=[mv_f0_n3194.1.3 mv_f0_lv81_busbar.1.0 mv_f0_lv81_busbar.0.2] conns=[Delta Wye Wye] kVs=[22 0.25 0.25] kVAs=[10 10 10] xhl=2.46 %noloadloss=0.18 %loadloss=2.2 wdg=1 numtaps=4 tap=1.0 maxtap=1.137 mintap=1.028
New Transformer.mv_f0_lv_AFFLECK_4 phases=1 windings=3 buses=[mv_f0_n2056.1.3 mv_f0_lv82_busbar.1.0 mv_f0_lv82_busbar.0.2] conns=[Delta Wye Wye] kVs=[22 0.25 0.25] kVAs=[50 50 50] xhl=2.46 %noloadloss=0.18 %loadloss=2.2 wdg=1 numtaps=4 tap=1.0 maxtap=1.137 mintap=1.028
New Transformer.mv_f0_lv_HILL_END_SCANLONS phases=1 windings=3 buses=[mv_f0_n223.1.3 mv_f0_lv83_busbar.1.0 mv_f0_lv83_busbar.0.2] conns=[Delta Wye Wye] kVs=[22 0.25 0.25] kVAs=[50 50 50] xhl=2.46 %noloadloss=0.18 %loadloss=2.2 wdg=1 numtaps=4 tap=1.0 maxtap=1.137 mintap=1.028
New Transformer.mv_f0_lv_HUME_STH_SERV_CENTRE phases=3 windings=2 buses=[mv_f0_n617 mv_f0_lv84_busbar] conns=[delta wye] kVs=[22.0 0.433] kVAs=[315 315] xhl=3.85 %noloadloss=0.12 %loadloss=1.3 wdg=1 numtaps=4 tap=1.025 maxtap=1.137 mintap=1.028
New Transformer.mv_f0_lv_NTH_STATION_P6_BFD phases=1 windings=3 buses=[mv_f0_n3401.1.2 mv_f0_lv85_busbar.1.0 mv_f0_lv85_busbar.0.2] conns=[Delta Wye Wye] kVs=[22 0.25 0.25] kVAs=[10 10 10] xhl=2.46 %noloadloss=0.18 %loadloss=2.2 wdg=1 numtaps=4 tap=1.025 maxtap=1.137 mintap=1.028
New Transformer.mv_f0_lv_MERRIANG_P307 phases=1 windings=3 buses=[mv_f0_n1936.1.3 mv_f0_lv86_busbar.1.0 mv_f0_lv86_busbar.0.2] conns=[Delta Wye Wye] kVs=[22 0.25 0.25] kVAs=[10 10 10] xhl=2.46 %noloadloss=0.18 %loadloss=2.2 wdg=1 numtaps=4 tap=1.0 maxtap=1.137 mintap=1.028
New Transformer.mv_f0_lv_GRANTS_SHERIDAN phases=1 windings=3 buses=[mv_f0_n201.1.2 mv_f0_lv87_busbar.1.0 mv_f0_lv87_busbar.0.2] conns=[Delta Wye Wye] kVs=[22 0.25 0.25] kVAs=[10 10 10] xhl=2.46 %noloadloss=0.18 %loadloss=2.2 wdg=1 numtaps=4 tap=1.025 maxtap=1.137 mintap=1.028
New Transformer.mv_f0_lv_MAPLEY_HOLTS phases=1 windings=2 buses=[mv_f0_n366.1 mv_f0_lv88_busbar.1] conns=[Wye Wye] kVs=[12.7 0.24] kVAs=[10 10] xhl=2.46 %noloadloss=0.18 %loadloss=2.2 wdg=1 numtaps=4 tap=0.975 maxtap=1.137 mintap=1.028
New Transformer.mv_f0_lv_VALLEY_WILLIAM phases=3 windings=2 buses=[mv_f0_n943 mv_f0_lv89_busbar] conns=[delta wye] kVs=[22.0 0.433] kVAs=[100 100] xhl=3.6 %noloadloss=0.145 %loadloss=1.75 wdg=1 numtaps=4 tap=1.0 maxtap=1.137 mintap=1.028
New Transformer.mv_f0_lv_JENKINS_BRUCES_CK phases=1 windings=2 buses=[mv_f0_n3563.1 mv_f0_lv90_busbar.1] conns=[Wye Wye] kVs=[12.7 0.24] kVAs=[20 20] xhl=2.46 %noloadloss=0.18 %loadloss=2.2 wdg=1 numtaps=4 tap=0.975 maxtap=1.137 mintap=1.028
New Transformer.mv_f0_lv_SHELL_BUNKER_HILL phases=3 windings=2 buses=[mv_f0_n3329 mv_f0_lv91_busbar] conns=[delta wye] kVs=[22.0 0.433] kVAs=[300 300] xhl=3.78 %noloadloss=0.13125 %loadloss=1.46875 wdg=1 numtaps=4 tap=1.025 maxtap=1.137 mintap=1.028
New Transformer.mv_f0_lv_EIGHTH_POST_OFFICE_5 phases=1 windings=3 buses=[mv_f0_n3761.3.1 mv_f0_lv92_busbar.1.0 mv_f0_lv92_busbar.0.2] conns=[Delta Wye Wye] kVs=[22 0.25 0.25] kVAs=[16 16 16] xhl=2.46 %noloadloss=0.18 %loadloss=2.2 wdg=1 numtaps=4 tap=1.025 maxtap=1.137 mintap=1.028
New Transformer.mv_f0_lv_BRUCES_CK_N20 phases=1 windings=2 buses=[mv_f0_n2820.1 mv_f0_lv93_busbar.1] conns=[Wye Wye] kVs=[12.7 0.24] kVAs=[25 25] xhl=2.46 %noloadloss=0.18 %loadloss=2.2 wdg=1 numtaps=4 tap=0.975 maxtap=1.137 mintap=1.028
New Transformer.mv_f0_lv_ELIZABETH_1_MERRIANG phases=1 windings=3 buses=[mv_f0_n1978.3.1 mv_f0_lv94_busbar.1.0 mv_f0_lv94_busbar.0.2] conns=[Delta Wye Wye] kVs=[22 0.25 0.25] kVAs=[50 50 50] xhl=2.46 %noloadloss=0.18 %loadloss=2.2 wdg=1 numtaps=4 tap=1.025 maxtap=1.137 mintap=1.028
New Transformer.mv_f0_lv_RAIL_1E_KOORALINGA phases=1 windings=3 buses=[mv_f0_n3327.2.3 mv_f0_lv95_busbar.1.0 mv_f0_lv95_busbar.0.2] conns=[Delta Wye Wye] kVs=[22 0.25 0.25] kVAs=[25 25 25] xhl=2.46 %noloadloss=0.18 %loadloss=2.2 wdg=1 numtaps=4 tap=1.025 maxtap=1.137 mintap=1.028
New Transformer.mv_f0_lv_NTH_STATION_BROADFRD phases=1 windings=3 buses=[mv_f0_n3491.1.2 mv_f0_lv96_busbar.1.0 mv_f0_lv96_busbar.0.2] conns=[Delta Wye Wye] kVs=[22 0.25 0.25] kVAs=[10 10 10] xhl=2.46 %noloadloss=0.18 %loadloss=2.2 wdg=1 numtaps=4 tap=1.05 maxtap=1.137 mintap=1.028
New Transformer.mv_f0_lv_NAPOLITANO_MERRIANG phases=1 windings=3 buses=[mv_f0_n2010.1.3 mv_f0_lv97_busbar.1.0 mv_f0_lv97_busbar.0.2] conns=[Delta Wye Wye] kVs=[22 0.25 0.25] kVAs=[10 10 10] xhl=2.46 %noloadloss=0.18 %loadloss=2.2 wdg=1 numtaps=4 tap=1.0 maxtap=1.137 mintap=1.028
New Transformer.mv_f0_lv_HUNT_CLUB_MERRIANG phases=1 windings=3 buses=[mv_f0_n281.2.1 mv_f0_lv98_busbar.1.0 mv_f0_lv98_busbar.0.2] conns=[Delta Wye Wye] kVs=[22 0.25 0.25] kVAs=[10 10 10] xhl=2.46 %noloadloss=0.18 %loadloss=2.2 wdg=1 numtaps=4 tap=1.025 maxtap=1.137 mintap=1.028
New Transformer.mv_f0_lv_NINTH_P13_FIRST phases=1 windings=3 buses=[mv_f0_n3057.2.1 mv_f0_lv99_busbar.1.0 mv_f0_lv99_busbar.0.2] conns=[Delta Wye Wye] kVs=[22 0.25 0.25] kVAs=[16 16 16] xhl=2.46 %noloadloss=0.18 %loadloss=2.2 wdg=1 numtaps=4 tap=1.025 maxtap=1.137 mintap=1.028
New Transformer.mv_f0_lv_BROADFORD_MT_VIEW phases=1 windings=3 buses=[mv_f0_n2709.3.1 mv_f0_lv100_busbar.1.0 mv_f0_lv100_busbar.0.2] conns=[Delta Wye Wye] kVs=[22 0.25 0.25] kVAs=[25 25 25] xhl=2.46 %noloadloss=0.18 %loadloss=2.2 wdg=1 numtaps=4 tap=1.0 maxtap=1.137 mintap=1.028
New Transformer.mv_f0_lv_KEEP_HOLTS phases=1 windings=2 buses=[mv_f0_n459.1 mv_f0_lv101_busbar.1] conns=[Wye Wye] kVs=[12.7 0.24] kVAs=[10 10] xhl=2.46 %noloadloss=0.18 %loadloss=2.2 wdg=1 numtaps=4 tap=0.975 maxtap=1.137 mintap=1.028
New Transformer.mv_f0_lv_BRUCE_CK_BRADLEY phases=1 windings=2 buses=[mv_f0_n3354.1 mv_f0_lv102_busbar.1] conns=[Wye Wye] kVs=[22.0 0.433] kVAs=[10 10] xhl=2.46 %noloadloss=0.18 %loadloss=2.2 wdg=1 numtaps=4 tap=1.0 maxtap=1.137 mintap=1.028
New Transformer.mv_f0_lv_PETERMANN_DALLS phases=1 windings=3 buses=[mv_f0_n2602.2.3 mv_f0_lv103_busbar.1.0 mv_f0_lv103_busbar.0.2] conns=[Delta Wye Wye] kVs=[22 0.25 0.25] kVAs=[10 10 10] xhl=2.46 %noloadloss=0.18 %loadloss=2.2 wdg=1 numtaps=4 tap=1.025 maxtap=1.137 mintap=1.028
New Transformer.mv_f0_lv_GRANTS_MERRIANG phases=1 windings=3 buses=[mv_f0_n2070.1.2 mv_f0_lv104_busbar.1.0 mv_f0_lv104_busbar.0.2] conns=[Delta Wye Wye] kVs=[22 0.25 0.25] kVAs=[50 50 50] xhl=2.46 %noloadloss=0.18 %loadloss=2.2 wdg=1 numtaps=4 tap=1.025 maxtap=1.137 mintap=1.028
New Transformer.mv_f0_lv_WALLAN_FIR phases=3 windings=2 buses=[mv_f0_n1049 mv_f0_lv105_busbar] conns=[delta wye] kVs=[22.0 0.433] kVAs=[100 100] xhl=3.6 %noloadloss=0.145 %loadloss=1.75 wdg=1 numtaps=4 tap=1.025 maxtap=1.137 mintap=1.028
New Transformer.mv_f0_lv_KOORALINGA_RAIL_3E phases=1 windings=3 buses=[mv_f0_n3408.2.3 mv_f0_lv106_busbar.1.0 mv_f0_lv106_busbar.0.2] conns=[Delta Wye Wye] kVs=[22 0.25 0.25] kVAs=[10 10 10] xhl=2.46 %noloadloss=0.18 %loadloss=2.2 wdg=1 numtaps=4 tap=1.025 maxtap=1.137 mintap=1.028
New Transformer.mv_f0_lv_STH_MOUNT_MOUNTAIN phases=1 windings=3 buses=[mv_f0_n3402.1.2 mv_f0_lv107_busbar.1.0 mv_f0_lv107_busbar.0.2] conns=[Delta Wye Wye] kVs=[22 0.25 0.25] kVAs=[50 50 50] xhl=2.46 %noloadloss=0.18 %loadloss=2.2 wdg=1 numtaps=4 tap=1.025 maxtap=1.137 mintap=1.028
New Transformer.mv_f0_lv_HADFIELD_MERRIANG phases=1 windings=3 buses=[mv_f0_n2101.2.1 mv_f0_lv108_busbar.1.0 mv_f0_lv108_busbar.0.2] conns=[Delta Wye Wye] kVs=[22 0.25 0.25] kVAs=[10 10 10] xhl=2.46 %noloadloss=0.18 %loadloss=2.2 wdg=1 numtaps=4 tap=1.025 maxtap=1.137 mintap=1.028
New Transformer.mv_f0_lv_DRY_CK_AFFLECK phases=1 windings=3 buses=[mv_f0_n3409.2.3 mv_f0_lv109_busbar.1.0 mv_f0_lv109_busbar.0.2] conns=[Delta Wye Wye] kVs=[22 0.25 0.25] kVAs=[50 50 50] xhl=2.46 %noloadloss=0.18 %loadloss=2.2 wdg=1 numtaps=4 tap=1.025 maxtap=1.137 mintap=1.028
New Transformer.mv_f0_lv_MCDONALD_P14_BON phases=1 windings=3 buses=[mv_f0_n567.2.3 mv_f0_lv110_busbar.1.0 mv_f0_lv110_busbar.0.2] conns=[Delta Wye Wye] kVs=[22 0.25 0.25] kVAs=[50 50 50] xhl=2.46 %noloadloss=0.18 %loadloss=2.2 wdg=1 numtaps=4 tap=1.025 maxtap=1.137 mintap=1.028
New Transformer.mv_f0_lv_MERRIANG_P169 phases=3 windings=2 buses=[mv_f0_n2450 mv_f0_lv111_busbar] conns=[delta wye] kVs=[22.0 0.433] kVAs=[25 25] xhl=2.46 %noloadloss=0.18 %loadloss=2.2 wdg=1 numtaps=4 tap=1.025 maxtap=1.137 mintap=1.028
New Transformer.mv_f0_lv_MERRIANG_P134 phases=3 windings=2 buses=[mv_f0_n357 mv_f0_lv112_busbar] conns=[delta wye] kVs=[22.0 0.433] kVAs=[63 63] xhl=3.6 %noloadloss=0.145 %loadloss=1.75 wdg=1 numtaps=4 tap=1.025 maxtap=1.137 mintap=1.028
New Transformer.mv_f0_lv_MILLERS_HALLS phases=1 windings=2 buses=[mv_f0_n547.1 mv_f0_lv113_busbar.1] conns=[Wye Wye] kVs=[12.7 0.24] kVAs=[20 20] xhl=2.46 %noloadloss=0.18 %loadloss=2.2 wdg=1 numtaps=4 tap=0.975 maxtap=1.137 mintap=1.028
New Transformer.mv_f0_lv_SEVENTH_P13_FIRST phases=1 windings=3 buses=[mv_f0_n2668.3.2 mv_f0_lv114_busbar.1.0 mv_f0_lv114_busbar.0.2] conns=[Delta Wye Wye] kVs=[22 0.25 0.25] kVAs=[50 50 50] xhl=2.46 %noloadloss=0.18 %loadloss=2.2 wdg=1 numtaps=4 tap=1.025 maxtap=1.137 mintap=1.028