New Transformer.mv_f0_lv_MALABAR phases=1 windings=3 buses=[mv_f0_n1577.2.1 mv_f0_lv0_busbar.1.0 mv_f0_lv0_busbar.0.2] conns=[Delta Wye Wye] kVs=[22 0.25 0.25] kVAs=[10 10 10] xhl=2.46 %noloadloss=0.18 %loadloss=2.2 wdg=1 numtaps=4 tap=1.025 maxtap=1.137 mintap=1.028
New Transformer.mv_f0_lv_LAUREL_GROVE_14F phases=3 windings=2 buses=[mv_f0_n3701 mv_f0_lv1_busbar] conns=[delta wye] kVs=[22.0 0.433] kVAs=[25 25] xhl=2.46 %noloadloss=0.18 %loadloss=2.2 wdg=1 numtaps=4 tap=1.025 maxtap=1.137 mintap=1.028
New Transformer.mv_f0_lv_LIBERTY_ELLOURA phases=3 windings=2 buses=[mv_f0_n2123 mv_f0_lv2_busbar] conns=[delta wye] kVs=[22.0 0.433] kVAs=[315 315] xhl=3.85 %noloadloss=0.12 %loadloss=1.3 wdg=1 numtaps=4 tap=1.0 maxtap=1.137 mintap=1.028
New Transformer.mv_f0_lv_KELBLOCK_1 phases=1 windings=3 buses=[mv_f0_n358.1.2 mv_f0_lv3_busbar.1.0 mv_f0_lv3_busbar.0.2] conns=[Delta Wye Wye] kVs=[22 0.25 0.25] kVAs=[25 25 25] xhl=2.46 %noloadloss=0.18 %loadloss=2.2 wdg=1 numtaps=4 tap=1.05 maxtap=1.137 mintap=1.028
New Transformer.mv_f0_lv_LOCKSLEY_89 phases=1 windings=2 buses=[mv_f0_n1561.1 mv_f0_lv4_busbar.1] conns=[Wye Wye] kVs=[12.7 0.24] kVAs=[20 20] xhl=2.46 %noloadloss=0.18 %loadloss=2.2 wdg=1 numtaps=4 tap=0.95 maxtap=1.137 mintap=1.028
New Transformer.mv_f0_lv_OPTUS_SITE_2 phases=1 windings=3 buses=[mv_f0_n3221.1.2 mv_f0_lv5_busbar.1.0 mv_f0_lv5_busbar.0.2] conns=[Delta Wye Wye] kVs=[22 0.25 0.25] kVAs=[16 16 16] xhl=2.46 %noloadloss=0.18 %loadloss=2.2 wdg=1 numtaps=4 tap=1.025 maxtap=1.137 mintap=1.028
New Transformer.mv_f0_lv_WATERS_8 phases=1 windings=2 buses=[mv_f0_n1073.1 mv_f0_lv6_busbar.1] conns=[Wye Wye] kVs=[12.7 0.24] kVAs=[20 20] xhl=2.46 %noloadloss=0.18 %loadloss=2.2 wdg=1 numtaps=4 tap=1.0 maxtap=1.137 mintap=1.028
New Transformer.mv_f0_lv_CAMP_PUMP_24 phases=1 windings=3 buses=[mv_f0_n2074.2.3 mv_f0_lv7_busbar.1.0 mv_f0_lv7_busbar.0.2] conns=[Delta Wye Wye] kVs=[22 0.25 0.25] kVAs=[25 25 25] xhl=2.46 %noloadloss=0.18 %loadloss=2.2 wdg=1 numtaps=4 tap=1.05 maxtap=1.137 mintap=1.028
New Transformer.mv_f0_lv_DARLEY_4 phases=3 windings=2 buses=[mv_f0_n4146 mv_f0_lv8_busbar] conns=[delta wye] kVs=[22.0 0.433] kVAs=[100 100] xhl=2.46 %noloadloss=0.18 %loadloss=2.2 wdg=1 numtaps=4 tap=1.05 maxtap=1.137 mintap=1.028
New Transformer.mv_f0_lv_COAXIAL_2 phases=3 windings=2 buses=[mv_f0_n3629 mv_f0_lv9_busbar] conns=[delta wye] kVs=[22.0 0.433] kVAs=[63 63] xhl=3.6 %noloadloss=0.145 %loadloss=1.75 wdg=1 numtaps=4 tap=1.05 maxtap=1.137 mintap=1.028
New Transformer.mv_f0_lv_WOODLEA_COURT phases=3 windings=2 buses=[mv_f0_n780 mv_f0_lv10_busbar] conns=[delta wye] kVs=[22.0 0.433] kVAs=[100 100] xhl=3.6 %noloadloss=0.145 %loadloss=1.75 wdg=1 numtaps=4 tap=1.025 maxtap=1.137 mintap=1.028
New Transformer.mv_f0_lv_LOCKSLEY_88E phases=1 windings=2 buses=[mv_f0_n1472.1 mv_f0_lv11_busbar.1] conns=[Wye Wye] kVs=[12.7 0.24] kVAs=[25 25] xhl=2.46 %noloadloss=0.18 %loadloss=2.2 wdg=1 numtaps=4 tap=0.95 maxtap=1.137 mintap=1.028
New Transformer.mv_f0_lv_PINE_GRANGE_7 phases=1 windings=2 buses=[mv_f0_n2977.1 mv_f0_lv12_busbar.1] conns=[Wye Wye] kVs=[12.7 0.24] kVAs=[10 10] xhl=2.46 %noloadloss=0.18 %loadloss=2.2 wdg=1 numtaps=4 tap=0.95 maxtap=1.137 mintap=1.028
New Transformer.mv_f0_lv_RONDAVEL_4 phases=1 windings=3 buses=[mv_f0_n664.2.3 mv_f0_lv13_busbar.1.0 mv_f0_lv13_busbar.0.2] conns=[Delta Wye Wye] kVs=[22 0.25 0.25] kVAs=[16 16 16] xhl=2.46 %noloadloss=0.18 %loadloss=2.2 wdg=1 numtaps=4 tap=1.025 maxtap=1.137 mintap=1.028
New Transformer.mv_f0_lv_ALLENVALE_8 phases=1 windings=2 buses=[mv_f0_n314.1 mv_f0_lv14_busbar.1] conns=[Wye Wye] kVs=[12.7 0.24] kVAs=[25 25] xhl=2.46 %noloadloss=0.18 %loadloss=2.2 wdg=1 numtaps=4 tap=1.0 maxtap=1.137 mintap=1.028
New Transformer.mv_f0_lv_BURNT_CREEK_8 phases=1 windings=2 buses=[mv_f0_n460.1 mv_f0_lv15_busbar.1] conns=[Wye Wye] kVs=[12.7 0.24] kVAs=[25 25] xhl=2.46 %noloadloss=0.18 %loadloss=2.2 wdg=1 numtaps=4 tap=0.95 maxtap=1.137 mintap=1.028
New Transformer.mv_f0_lv_PLUNKETT_3 phases=3 windings=2 buses=[mv_f0_n1656 mv_f0_lv16_busbar] conns=[delta wye] kVs=[22.0 0.433] kVAs=[200 200] xhl=3.78 %noloadloss=0.13125 %loadloss=1.46875 wdg=1 numtaps=4 tap=1.0 maxtap=1.137 mintap=1.028
New Transformer.mv_f0_lv_COAXIAL_12 phases=1 windings=3 buses=[mv_f0_n1594.1.2 mv_f0_lv17_busbar.1.0 mv_f0_lv17_busbar.0.2] conns=[Delta Wye Wye] kVs=[22 0.25 0.25] kVAs=[10 10 10] xhl=2.46 %noloadloss=0.18 %loadloss=2.2 wdg=1 numtaps=4 tap=1.05 maxtap=1.137 mintap=1.028
New Transformer.mv_f0_lv_BUNGARRA_35 phases=1 windings=2 buses=[mv_f0_n2779.1 mv_f0_lv18_busbar.1] conns=[Wye Wye] kVs=[12.7 0.24] kVAs=[10 10] xhl=2.46 %noloadloss=0.18 %loadloss=2.2 wdg=1 numtaps=4 tap=1.0 maxtap=1.137 mintap=1.028
New Transformer.mv_f0_lv_MORRISON_1 phases=1 windings=3 buses=[mv_f0_n71.1.2 mv_f0_lv19_busbar.1.0 mv_f0_lv19_busbar.0.2] conns=[Delta Wye Wye] kVs=[22 0.25 0.25] kVAs=[10 10 10] xhl=2.46 %noloadloss=0.18 %loadloss=2.2 wdg=1 numtaps=4 tap=1.05 maxtap=1.137 mintap=1.028
New Transformer.mv_f0_lv_HUGHES_2E phases=1 windings=2 buses=[mv_f0_n133.1 mv_f0_lv20_busbar.1] conns=[Wye Wye] kVs=[12.7 0.24] kVAs=[10 10] xhl=2.46 %noloadloss=0.18 %loadloss=2.2 wdg=1 numtaps=4 tap=1.0 maxtap=1.137 mintap=1.028
New Transformer.mv_f0_lv_SAND_WASH_5 phases=3 windings=2 buses=[mv_f0_n2573 mv_f0_lv21_busbar] conns=[delta wye] kVs=[22.0 0.433] kVAs=[300 300] xhl=2.46 %noloadloss=0.18 %loadloss=2.2 wdg=1 numtaps=4 tap=1.05 maxtap=1.137 mintap=1.028
New Transformer.mv_f0_lv_DAY_25 phases=1 windings=2 buses=[mv_f0_n3752.1 mv_f0_lv22_busbar.1] conns=[Wye Wye] kVs=[12.7 0.24] kVAs=[25 25] xhl=2.46 %noloadloss=0.18 %loadloss=2.2 wdg=1 numtaps=4 tap=0.975 maxtap=1.137 mintap=1.028
New Transformer.mv_f0_lv_NAGAMBIE_178 phases=1 windings=3 buses=[mv_f0_n2147.1.3 mv_f0_lv23_busbar.1.0 mv_f0_lv23_busbar.0.2] conns=[Delta Wye Wye] kVs=[22 0.25 0.25] kVAs=[10 10 10] xhl=2.46 %noloadloss=0.18 %loadloss=2.2 wdg=1 numtaps=4 tap=1.05 maxtap=1.137 mintap=1.028
New Transformer.mv_f0_lv_LOCKSLEY_30 phases=1 windings=3 buses=[mv_f0_n2412.1.3 mv_f0_lv24_busbar.1.0 mv_f0_lv24_busbar.0.2] conns=[Delta Wye Wye] kVs=[22 0.25 0.25] kVAs=[25 25 25] xhl=2.46 %noloadloss=0.18 %loadloss=2.2 wdg=1 numtaps=4 tap=1.025 maxtap=1.137 mintap=1.028
New Transformer.mv_f0_lv_LOCKSLEY_28 phases=1 windings=3 buses=[mv_f0_n445.1.3 mv_f0_lv25_busbar.1.0 mv_f0_lv25_busbar.0.2] conns=[Delta Wye Wye] kVs=[22 0.25 0.25] kVAs=[25 25 25] xhl=2.46 %noloadloss=0.18 %loadloss=2.2 wdg=1 numtaps=4 tap=1.025 maxtap=1.137 mintap=1.028
New Transformer.mv_f0_lv_KIRWAN_6 phases=1 windings=3 buses=[mv_f0_n1553.1.2 mv_f0_lv26_busbar.1.0 mv_f0_lv26_busbar.0.2] conns=[Delta Wye Wye] kVs=[22 0.25 0.25] kVAs=[25 25 25] xhl=2.46 %noloadloss=0.18 %loadloss=2.2 wdg=1 numtaps=4 tap=1.025 maxtap=1.137 mintap=1.028
New Transformer.mv_f0_lv_PINE_GRANGE_13 phases=1 windings=2 buses=[mv_f0_n1801.1 mv_f0_lv27_busbar.1] conns=[Wye Wye] kVs=[12.7 0.24] kVAs=[20 20] xhl=2.46 %noloadloss=0.18 %loadloss=2.2 wdg=1 numtaps=4 tap=0.95 maxtap=1.137 mintap=1.028
New Transformer.mv_f0_lv_PINE_GRANGE_4E phases=1 windings=2 buses=[mv_f0_n844.1 mv_f0_lv28_busbar.1] conns=[Wye Wye] kVs=[12.7 0.24] kVAs=[10 10] xhl=2.46 %noloadloss=0.18 %loadloss=2.2 wdg=1 numtaps=4 tap=0.95 maxtap=1.137 mintap=1.028
New Transformer.mv_f0_lv_LAUREL_GROVE_1 phases=1 windings=3 buses=[mv_f0_n3258.1.2 mv_f0_lv29_busbar.1.0 mv_f0_lv29_busbar.0.2] conns=[Delta Wye Wye] kVs=[22 0.25 0.25] kVAs=[25 25 25] xhl=2.46 %noloadloss=0.18 %loadloss=2.2 wdg=1 numtaps=4 tap=1.025 maxtap=1.137 mintap=1.028
New Transformer.mv_f0_lv_WOLBUNYAH phases=3 windings=2 buses=[mv_f0_n990 mv_f0_lv30_busbar] conns=[delta wye] kVs=[22.0 0.433] kVAs=[25 25] xhl=2.46 %noloadloss=0.18 %loadloss=2.2 wdg=1 numtaps=4 tap=1.025 maxtap=1.137 mintap=1.028
New Transformer.mv_f0_lv_SHIMMINS_2 phases=1 windings=2 buses=[mv_f0_n139.1 mv_f0_lv31_busbar.1] conns=[Wye Wye] kVs=[12.7 0.24] kVAs=[10 10] xhl=2.46 %noloadloss=0.18 %loadloss=2.2 wdg=1 numtaps=4 tap=1.0 maxtap=1.137 mintap=1.028
New Transformer.mv_f0_lv_PRYOR_2 phases=1 windings=3 buses=[mv_f0_n3955.3.2 mv_f0_lv32_busbar.1.0 mv_f0_lv32_busbar.0.2] conns=[Delta Wye Wye] kVs=[22 0.25 0.25] kVAs=[16 16 16] xhl=2.46 %noloadloss=0.18 %loadloss=2.2 wdg=1 numtaps=4 tap=1.05 maxtap=1.137 mintap=1.028
New Transformer.mv_f0_lv_HUGHES_4 phases=1 windings=2 buses=[mv_f0_n2795.1 mv_f0_lv33_busbar.1] conns=[Wye Wye] kVs=[12.7 0.24] kVAs=[10 10] xhl=2.46 %noloadloss=0.18 %loadloss=2.2 wdg=1 numtaps=4 tap=1.0 maxtap=1.137 mintap=1.028
New Transformer.mv_f0_lv_HEAD phases=1 windings=3 buses=[mv_f0_n1704.2.1 mv_f0_lv34_busbar.1.0 mv_f0_lv34_busbar.0.2] conns=[Delta Wye Wye] kVs=[22 0.25 0.25] kVAs=[10 10 10] xhl=2.46 %noloadloss=0.18 %loadloss=2.2 wdg=1 numtaps=4 tap=1.05 maxtap=1.137 mintap=1.028
New Transformer.mv_f0_lv_LOCKSLEY_12 phases=1 windings=3 buses=[mv_f0_n87.1.3 mv_f0_lv35_busbar.1.0 mv_f0_lv35_busbar.0.2] conns=[Delta Wye Wye] kVs=[22 0.25 0.25] kVAs=[10 10 10] xhl=2.46 %noloadloss=0.18 %loadloss=2.2 wdg=1 numtaps=4 tap=1.025 maxtap=1.137 mintap=1.028
New Transformer.mv_f0_lv_HIGH-PRENTICE phases=3 windings=2 buses=[mv_f0_n3457 mv_f0_lv36_busbar] conns=[delta wye] kVs=[22.0 0.433] kVAs=[300 300] xhl=2.46 %noloadloss=0.18 %loadloss=2.2 wdg=1 numtaps=4 tap=1.025 maxtap=1.137 mintap=1.028
New Transformer.mv_f0_lv_BUSH_PEA_7 phases=3 windings=2 buses=[mv_f0_n2042 mv_f0_lv37_busbar] conns=[delta wye] kVs=[22.0 0.433] kVAs=[25 25] xhl=2.46 %noloadloss=0.18 %loadloss=2.2 wdg=1 numtaps=4 tap=1.05 maxtap=1.137 mintap=1.028
New Transformer.mv_f0_lv_NAGAMBIE_199E phases=1 windings=3 buses=[mv_f0_n3091.3.1 mv_f0_lv38_busbar.1.0 mv_f0_lv38_busbar.0.2] conns=[Delta Wye Wye] kVs=[22 0.25 0.25] kVAs=[10 10 10] xhl=2.46 %noloadloss=0.18 %loadloss=2.2 wdg=1 numtaps=4 tap=1.05 maxtap=1.137 mintap=1.028
New Transformer.mv_f0_lv_LOCKSLEY_16 phases=1 windings=3 buses=[mv_f0_n77.1.3 mv_f0_lv39_busbar.1.0 mv_f0_lv39_busbar.0.2] conns=[Delta Wye Wye] kVs=[22 0.25 0.25] kVAs=[10 10 10] xhl=2.46 %noloadloss=0.18 %loadloss=2.2 wdg=1 numtaps=4 tap=1.025 maxtap=1.137 mintap=1.028
New Transformer.mv_f0_lv_PRYOR_5 phases=1 windings=3 buses=[mv_f0_n1742.3.1 mv_f0_lv40_busbar.1.0 mv_f0_lv40_busbar.0.2] conns=[Delta Wye Wye] kVs=[22 0.25 0.25] kVAs=[10 10 10] xhl=2.46 %noloadloss=0.18 %loadloss=2.2 wdg=1 numtaps=4 tap=1.025 maxtap=1.137 mintap=1.028
New Transformer.mv_f0_lv_BAILIESTON_EAST_24 phases=1 windings=3 buses=[mv_f0_n1213.2.1 mv_f0_lv41_busbar.1.0 mv_f0_lv41_busbar.0.2] conns=[Delta Wye Wye] kVs=[22 0.25 0.25] kVAs=[10 10 10] xhl=2.46 %noloadloss=0.18 %loadloss=2.2 wdg=1 numtaps=4 tap=1.025 maxtap=1.137 mintap=1.028
New Transformer.mv_f0_lv_ERIN_3E phases=1 windings=2 buses=[mv_f0_n241.1 mv_f0_lv42_busbar.1] conns=[Wye Wye] kVs=[12.7 0.24] kVAs=[10 10] xhl=2.46 %noloadloss=0.18 %loadloss=2.2 wdg=1 numtaps=4 tap=0.95 maxtap=1.137 mintap=1.028
New Transformer.mv_f0_lv_LAUREL_GROVE_2 phases=3 windings=2 buses=[mv_f0_n3270 mv_f0_lv43_busbar] conns=[delta wye] kVs=[22.0 0.433] kVAs=[25 25] xhl=2.46 %noloadloss=0.18 %loadloss=2.2 wdg=1 numtaps=4 tap=1.025 maxtap=1.137 mintap=1.028
New Transformer.mv_f0_lv_AVENEL_38 phases=1 windings=3 buses=[mv_f0_n1044.1.3 mv_f0_lv44_busbar.1.0 mv_f0_lv44_busbar.0.2] conns=[Delta Wye Wye] kVs=[22 0.25 0.25] kVAs=[10 10 10] xhl=2.46 %noloadloss=0.18 %loadloss=2.2 wdg=1 numtaps=4 tap=1.025 maxtap=1.137 mintap=1.028
New Transformer.mv_f0_lv_SHIMMINS_3 phases=1 windings=2 buses=[mv_f0_n113.1 mv_f0_lv45_busbar.1] conns=[Wye Wye] kVs=[12.7 0.24] kVAs=[10 10] xhl=2.46 %noloadloss=0.18 %loadloss=2.2 wdg=1 numtaps=4 tap=1.0 maxtap=1.137 mintap=1.028
New Transformer.mv_f0_lv_POLLOCK_4 phases=1 windings=3 buses=[mv_f0_n1948.2.1 mv_f0_lv46_busbar.1.0 mv_f0_lv46_busbar.0.2] conns=[Delta Wye Wye] kVs=[22 0.25 0.25] kVAs=[25 25 25] xhl=2.46 %noloadloss=0.18 %loadloss=2.2 wdg=1 numtaps=4 tap=1.025 maxtap=1.137 mintap=1.028
New Transformer.mv_f0_lv_WATERS_2 phases=1 windings=2 buses=[mv_f0_n89.1 mv_f0_lv47_busbar.1] conns=[Wye Wye] kVs=[12.7 0.24] kVAs=[20 20] xhl=2.46 %noloadloss=0.18 %loadloss=2.2 wdg=1 numtaps=4 tap=1.0 maxtap=1.137 mintap=1.028
New Transformer.mv_f0_lv_GOULBURN_FILSON phases=3 windings=2 buses=[mv_f0_n1971 mv_f0_lv48_busbar] conns=[delta wye] kVs=[22.0 0.433] kVAs=[500 500] xhl=2.46 %noloadloss=0.18 %loadloss=2.2 wdg=1 numtaps=4 tap=1.025 maxtap=1.137 mintap=1.028
New Transformer.mv_f0_lv_NAGAMBIE_86 phases=1 windings=3 buses=[mv_f0_n2464.2.3 mv_f0_lv49_busbar.1.0 mv_f0_lv49_busbar.0.2] conns=[Delta Wye Wye] kVs=[22 0.25 0.25] kVAs=[10 10 10] xhl=2.46 %noloadloss=0.18 %loadloss=2.2 wdg=1 numtaps=4 tap=1.05 maxtap=1.137 mintap=1.028
New Transformer.mv_f0_lv_COOLWOOLA_6 phases=3 windings=2 buses=[mv_f0_n2264 mv_f0_lv50_busbar] conns=[delta wye] kVs=[22.0 0.433] kVAs=[50 50] xhl=2.46 %noloadloss=0.18 %loadloss=2.2 wdg=1 numtaps=4 tap=1.025 maxtap=1.137 mintap=1.028
New Transformer.mv_f0_lv_DARLEY_3 phases=3 windings=2 buses=[mv_f0_n552 mv_f0_lv51_busbar] conns=[delta wye] kVs=[22.0 0.433] kVAs=[100 100] xhl=2.46 %noloadloss=0.18 %loadloss=2.2 wdg=1 numtaps=4 tap=1.05 maxtap=1.137 mintap=1.028
New Transformer.mv_f0_lv_O_SULLIVANS_ESTATE_4 phases=3 windings=2 buses=[mv_f0_n526 mv_f0_lv52_busbar] conns=[delta wye] kVs=[22.0 0.433] kVAs=[100 100] xhl=2.46 %noloadloss=0.18 %loadloss=2.2 wdg=1 numtaps=4 tap=1.05 maxtap=1.137 mintap=1.028
New Transformer.mv_f0_lv_FLY_IN_3 phases=1 windings=2 buses=[mv_f0_n3268.1 mv_f0_lv53_busbar.1] conns=[Wye Wye] kVs=[12.7 0.24] kVAs=[10 10] xhl=2.46 %noloadloss=0.18 %loadloss=2.2 wdg=1 numtaps=4 tap=0.95 maxtap=1.137 mintap=1.028
New Transformer.mv_f0_lv_NAGAMBIE_206E phases=1 windings=3 buses=[mv_f0_n3455.2.3 mv_f0_lv54_busbar.1.0 mv_f0_lv54_busbar.0.2] conns=[Delta Wye Wye] kVs=[22 0.25 0.25] kVAs=[10 10 10] xhl=2.46 %noloadloss=0.18 %loadloss=2.2 wdg=1 numtaps=4 tap=1.05 maxtap=1.137 mintap=1.028
New Transformer.mv_f0_lv_DUDLEY_5 phases=1 windings=2 buses=[mv_f0_n837.1 mv_f0_lv55_busbar.1] conns=[Wye Wye] kVs=[12.7 0.24] kVAs=[20 20] xhl=2.46 %noloadloss=0.18 %loadloss=2.2 wdg=1 numtaps=4 tap=1.0 maxtap=1.137 mintap=1.028
New Transformer.mv_f0_lv_BUNGANAIL_5 phases=1 windings=3 buses=[mv_f0_n279.1.2 mv_f0_lv56_busbar.1.0 mv_f0_lv56_busbar.0.2] conns=[Delta Wye Wye] kVs=[22 0.25 0.25] kVAs=[10 10 10] xhl=2.46 %noloadloss=0.18 %loadloss=2.2 wdg=1 numtaps=4 tap=0.975 maxtap=1.137 mintap=1.028
New Transformer.mv_f0_lv_BAILIESTON_EAST_26 phases=1 windings=3 buses=[mv_f0_n218.2.1 mv_f0_lv57_busbar.1.0 mv_f0_lv57_busbar.0.2] conns=[Delta Wye Wye] kVs=[22 0.25 0.25] kVAs=[10 10 10] xhl=2.46 %noloadloss=0.18 %loadloss=2.2 wdg=1 numtaps=4 tap=1.025 maxtap=1.137 mintap=1.028
New Transformer.mv_f0_lv_NAGAMBIE_344 phases=3 windings=2 buses=[mv_f0_n352 mv_f0_lv58_busbar] conns=[delta wye] kVs=[22.0 0.433] kVAs=[25 25] xhl=2.46 %noloadloss=0.18 %loadloss=2.2 wdg=1 numtaps=4 tap=1.025 maxtap=1.137 mintap=1.028
New Transformer.mv_f0_lv_TED_2 phases=1 windings=2 buses=[mv_f0_n3278.1 mv_f0_lv59_busbar.1] conns=[Wye Wye] kVs=[12.7 0.24] kVAs=[10 10] xhl=2.46 %noloadloss=0.18 %loadloss=2.2 wdg=1 numtaps=4 tap=0.95 maxtap=1.137 mintap=1.028
New Transformer.mv_f0_lv_MORG phases=3 windings=2 buses=[mv_f0_n421 mv_f0_lv60_busbar] conns=[delta wye] kVs=[22.0 0.433] kVAs=[50 50] xhl=2.46 %noloadloss=0.18 %loadloss=2.2 wdg=1 numtaps=4 tap=1.025 maxtap=1.137 mintap=1.028
New Transformer.mv_f0_lv_BUNGANAIL_7 phases=1 windings=3 buses=[mv_f0_n266.1.2 mv_f0_lv61_busbar.1.0 mv_f0_lv61_busbar.0.2] conns=[Delta Wye Wye] kVs=[22 0.25 0.25] kVAs=[25 25 25] xhl=2.46 %noloadloss=0.18 %loadloss=2.2 wdg=1 numtaps=4 tap=0.975 maxtap=1.137 mintap=1.028
New Transformer.mv_f0_lv_AVENEL_28 phases=1 windings=3 buses=[mv_f0_n1168.1.3 mv_f0_lv62_busbar.1.0 mv_f0_lv62_busbar.0.2] conns=[Delta Wye Wye] kVs=[22 0.25 0.25] kVAs=[16 16 16] xhl=2.46 %noloadloss=0.18 %loadloss=2.2 wdg=1 numtaps=4 tap=1.025 maxtap=1.137 mintap=1.028
New Transformer.mv_f0_lv_POLLOCK_6 phases=3 windings=2 buses=[mv_f0_n2217 mv_f0_lv63_busbar] conns=[delta wye] kVs=[22.0 0.433] kVAs=[100 100] xhl=2.46 %noloadloss=0.18 %loadloss=2.2 wdg=1 numtaps=4 tap=1.025 maxtap=1.137 mintap=1.028
New Transformer.mv_f0_lv_WATERS_3 phases=1 windings=2 buses=[mv_f0_n1013.1 mv_f0_lv64_busbar.1] conns=[Wye Wye] kVs=[12.7 0.24] kVAs=[10 10] xhl=2.46 %noloadloss=0.18 %loadloss=2.2 wdg=1 numtaps=4 tap=1.0 maxtap=1.137 mintap=1.028
New Transformer.mv_f0_lv_NAGAMBIE_89E phases=1 windings=3 buses=[mv_f0_n2442.2.3 mv_f0_lv65_busbar.1.0 mv_f0_lv65_busbar.0.2] conns=[Delta Wye Wye] kVs=[22 0.25 0.25] kVAs=[10 10 10] xhl=2.46 %noloadloss=0.18 %loadloss=2.2 wdg=1 numtaps=4 tap=1.05 maxtap=1.137 mintap=1.028
New Transformer.mv_f0_lv_MCCRACKEN_6 phases=1 windings=2 buses=[mv_f0_n414.1 mv_f0_lv66_busbar.1] conns=[Wye Wye] kVs=[12.7 0.24] kVAs=[25 25] xhl=2.46 %noloadloss=0.18 %loadloss=2.2 wdg=1 numtaps=4 tap=1.0 maxtap=1.137 mintap=1.028
New Transformer.mv_f0_lv_WRIGHT_15 phases=1 windings=2 buses=[mv_f0_n681.1 mv_f0_lv67_busbar.1] conns=[Wye Wye] kVs=[12.7 0.24] kVAs=[20 20] xhl=2.46 %noloadloss=0.18 %loadloss=2.2 wdg=1 numtaps=4 tap=0.95 maxtap=1.137 mintap=1.028
New Transformer.mv_f0_lv_CRAWFORD_P2 phases=1 windings=3 buses=[mv_f0_n180.2.1 mv_f0_lv68_busbar.1.0 mv_f0_lv68_busbar.0.2] conns=[Delta Wye Wye] kVs=[22 0.25 0.25] kVAs=[10 10 10] xhl=2.46 %noloadloss=0.18 %loadloss=2.2 wdg=1 numtaps=4 tap=1.025 maxtap=1.137 mintap=1.028
New Transformer.mv_f0_lv_PINE_GRANGE_21 phases=1 windings=2 buses=[mv_f0_n1149.1 mv_f0_lv69_busbar.1] conns=[Wye Wye] kVs=[12.7 0.24] kVAs=[20 20] xhl=2.46 %noloadloss=0.18 %loadloss=2.2 wdg=1 numtaps=4 tap=0.95 maxtap=1.137 mintap=1.028
New Transformer.mv_f0_lv_LAUREL_GROVE_3 phases=3 windings=2 buses=[mv_f0_n3252 mv_f0_lv70_busbar] conns=[delta wye] kVs=[22.0 0.433] kVAs=[25 25] xhl=2.46 %noloadloss=0.18 %loadloss=2.2 wdg=1 numtaps=4 tap=1.025 maxtap=1.137 mintap=1.028
New Transformer.mv_f0_lv_MORRISON_2 phases=1 windings=3 buses=[mv_f0_n82.1.2 mv_f0_lv71_busbar.1.0 mv_f0_lv71_busbar.0.2] conns=[Delta Wye Wye] kVs=[22 0.25 0.25] kVAs=[25 25 25] xhl=2.46 %noloadloss=0.18 %loadloss=2.2 wdg=1 numtaps=4 tap=1.05 maxtap=1.137 mintap=1.028
New Transformer.mv_f0_lv_SAND_WASH_2 phases=3 windings=2 buses=[mv_f0_n2638 mv_f0_lv72_busbar] conns=[delta wye] kVs=[22.0 0.433] kVAs=[100 100] xhl=2.46 %noloadloss=0.18 %loadloss=2.2 wdg=1 numtaps=4 tap=1.05 maxtap=1.137 mintap=1.028
New Transformer.mv_f0_lv_LAWN_3 phases=1 windings=2 buses=[mv_f0_n1229.1 mv_f0_lv73_busbar.1] conns=[Wye Wye] kVs=[12.7 0.24] kVAs=[20 20] xhl=2.46 %noloadloss=0.18 %loadloss=2.2 wdg=1 numtaps=4 tap=0.975 maxtap=1.137 mintap=1.028
New Transformer.mv_f0_lv_ROSE_ST phases=3 windings=2 buses=[mv_f0_n3292 mv_f0_lv74_busbar] conns=[delta wye] kVs=[22.0 0.433] kVAs=[100 100] xhl=2.46 %noloadloss=0.18 %loadloss=2.2 wdg=1 numtaps=4 tap=1.05 maxtap=1.137 mintap=1.028
New Transformer.mv_f0_lv_DUDLEY_6 phases=1 windings=2 buses=[mv_f0_n829.1 mv_f0_lv75_busbar.1] conns=[Wye Wye] kVs=[12.7 0.24] kVAs=[10 10] xhl=2.46 %noloadloss=0.18 %loadloss=2.2 wdg=1 numtaps=4 tap=1.0 maxtap=1.137 mintap=1.028
New Transformer.mv_f0_lv_ASH-JONES phases=3 windings=2 buses=[mv_f0_n3320 mv_f0_lv76_busbar] conns=[delta wye] kVs=[22.0 0.433] kVAs=[200 200] xhl=3.78 %noloadloss=0.13125 %loadloss=1.46875 wdg=1 numtaps=4 tap=1.0 maxtap=1.137 mintap=1.028
New Transformer.mv_f0_lv_GOULBURN_ST_65 phases=3 windings=2 buses=[mv_f0_n3161 mv_f0_lv77_busbar] conns=[delta wye] kVs=[22.0 0.433] kVAs=[750 750] xhl=4.88 %noloadloss=0.102 %loadloss=1.1 wdg=1 numtaps=4 tap=1.025 maxtap=1.137 mintap=1.028
New Transformer.mv_f0_lv_PINE_GRANGE_18E phases=1 windings=2 buses=[mv_f0_n165.1 mv_f0_lv78_busbar.1] conns=[Wye Wye] kVs=[12.7 0.24] kVAs=[25 25] xhl=2.46 %noloadloss=0.18 %loadloss=2.2 wdg=1 numtaps=4 tap=0.95 maxtap=1.137 mintap=1.028
New Transformer.mv_f0_lv_BAILIESTON_EAST_32 phases=1 windings=3 buses=[mv_f0_n2341.2.1 mv_f0_lv79_busbar.1.0 mv_f0_lv79_busbar.0.2] conns=[Delta Wye Wye] kVs=[22 0.25 0.25] kVAs=[10 10 10] xhl=2.46 %noloadloss=0.18 %loadloss=2.2 wdg=1 numtaps=4 tap=1.025 maxtap=1.137 mintap=1.028
New Transformer.mv_f0_lv_BUNGARRA_38 phases=1 windings=2 buses=[mv_f0_n202.1 mv_f0_lv80_busbar.1] conns=[Wye Wye] kVs=[12.7 0.24] kVAs=[25 25] xhl=2.46 %noloadloss=0.18 %loadloss=2.2 wdg=1 numtaps=4 tap=1.0 maxtap=1.137 mintap=1.028
New Transformer.mv_f0_lv_MC_DONALD_2 phases=1 windings=3 buses=[mv_f0_n736.1.3 mv_f0_lv81_busbar.1.0 mv_f0_lv81_busbar.0.2] conns=[Delta Wye Wye] kVs=[22 0.25 0.25] kVAs=[25 25 25] xhl=2.46 %noloadloss=0.18 %loadloss=2.2 wdg=1 numtaps=4 tap=1.025 maxtap=1.137 mintap=1.028
New Transformer.mv_f0_lv_COORLONG_7 phases=3 windings=2 buses=[mv_f0_n2542 mv_f0_lv82_busbar] conns=[delta wye] kVs=[22.0 0.433] kVAs=[50 50] xhl=2.46 %noloadloss=0.18 %loadloss=2.2 wdg=1 numtaps=4 tap=1.025 maxtap=1.137 mintap=1.028
New Transformer.mv_f0_lv_MANGA_15 phases=3 windings=2 buses=[mv_f0_n1836 mv_f0_lv83_busbar] conns=[delta wye] kVs=[22.0 0.433] kVAs=[200 200] xhl=3.78 %noloadloss=0.13125 %loadloss=1.46875 wdg=1 numtaps=4 tap=1.05 maxtap=1.137 mintap=1.028
New Transformer.mv_f0_lv_NORTHWOOD_PARK_8 phases=3 windings=2 buses=[mv_f0_n1452 mv_f0_lv84_busbar] conns=[delta wye] kVs=[22.0 0.433] kVAs=[63 63] xhl=3.6 %noloadloss=0.145 %loadloss=1.75 wdg=1 numtaps=4 tap=1.05 maxtap=1.137 mintap=1.028
New Transformer.mv_f0_lv_NAGAMBIE_52 phases=3 windings=2 buses=[mv_f0_n404 mv_f0_lv85_busbar] conns=[delta wye] kVs=[22.0 0.433] kVAs=[200 200] xhl=3.78 %noloadloss=0.13125 %loadloss=1.46875 wdg=1 numtaps=4 tap=1.05 maxtap=1.137 mintap=1.028
New Transformer.mv_f0_lv_LORE_1A phases=3 windings=2 buses=[mv_f0_n219 mv_f0_lv86_busbar] conns=[delta wye] kVs=[22.0 0.433] kVAs=[25 25] xhl=2.46 %noloadloss=0.18 %loadloss=2.2 wdg=1 numtaps=4 tap=1.025 maxtap=1.137 mintap=1.028
New Transformer.mv_f0_lv_DUDLEY_8 phases=1 windings=2 buses=[mv_f0_n802.1 mv_f0_lv87_busbar.1] conns=[Wye Wye] kVs=[12.7 0.24] kVAs=[10 10] xhl=2.46 %noloadloss=0.18 %loadloss=2.2 wdg=1 numtaps=4 tap=1.0 maxtap=1.137 mintap=1.028
New Transformer.mv_f0_lv_CAMP_PUMP_34F phases=1 windings=3 buses=[mv_f0_n3442.2.3 mv_f0_lv88_busbar.1.0 mv_f0_lv88_busbar.0.2] conns=[Delta Wye Wye] kVs=[22 0.25 0.25] kVAs=[10 10 10] xhl=2.46 %noloadloss=0.18 %loadloss=2.2 wdg=1 numtaps=4 tap=1.05 maxtap=1.137 mintap=1.028
New Transformer.mv_f0_lv_PRYOR_10E phases=1 windings=3 buses=[mv_f0_n532.3.1 mv_f0_lv89_busbar.1.0 mv_f0_lv89_busbar.0.2] conns=[Delta Wye Wye] kVs=[22 0.25 0.25] kVAs=[10 10 10] xhl=2.46 %noloadloss=0.18 %loadloss=2.2 wdg=1 numtaps=4 tap=1.025 maxtap=1.137 mintap=1.028
New Transformer.mv_f0_lv_GAZE_3 phases=3 windings=2 buses=[mv_f0_n3217 mv_f0_lv90_busbar] conns=[delta wye] kVs=[22.0 0.433] kVAs=[25 25] xhl=2.46 %noloadloss=0.18 %loadloss=2.2 wdg=1 numtaps=4 tap=1.05 maxtap=1.137 mintap=1.028
New Transformer.mv_f0_lv_NAGAMBIE_153 phases=3 windings=2 buses=[mv_f0_n2678 mv_f0_lv91_busbar] conns=[delta wye] kVs=[22.0 0.433] kVAs=[25 25] xhl=2.46 %noloadloss=0.18 %loadloss=2.2 wdg=1 numtaps=4 tap=1.05 maxtap=1.137 mintap=1.028
New Transformer.mv_f0_lv_MOORMOOL_58 phases=1 windings=2 buses=[mv_f0_n2156.1 mv_f0_lv92_busbar.1] conns=[Wye Wye] kVs=[12.7 0.24] kVAs=[20 20] xhl=2.46 %noloadloss=0.18 %loadloss=2.2 wdg=1 numtaps=4 tap=0.975 maxtap=1.137 mintap=1.028
New Transformer.mv_f0_lv_BUSHMANS_7 phases=1 windings=2 buses=[mv_f0_n2313.1 mv_f0_lv93_busbar.1] conns=[Wye Wye] kVs=[12.7 0.24] kVAs=[10 10] xhl=2.46 %noloadloss=0.18 %loadloss=2.2 wdg=1 numtaps=4 tap=0.975 maxtap=1.137 mintap=1.028
New Transformer.mv_f0_lv_GOULBURN_ST_48 phases=3 windings=2 buses=[mv_f0_n3827 mv_f0_lv94_busbar] conns=[delta wye] kVs=[22.0 0.433] kVAs=[100 100] xhl=2.46 %noloadloss=0.18 %loadloss=2.2 wdg=1 numtaps=4 tap=1.0 maxtap=1.137 mintap=1.028
New Transformer.mv_f0_lv_COORLONG_3 phases=1 windings=3 buses=[mv_f0_n3775.3.2 mv_f0_lv95_busbar.1.0 mv_f0_lv95_busbar.0.2] conns=[Delta Wye Wye] kVs=[22 0.25 0.25] kVAs=[10 10 10] xhl=2.46 %noloadloss=0.18 %loadloss=2.2 wdg=1 numtaps=4 tap=1.025 maxtap=1.137 mintap=1.028
New Transformer.mv_f0_lv_LORE_14 phases=1 windings=3 buses=[mv_f0_n987.2.3 mv_f0_lv96_busbar.1.0 mv_f0_lv96_busbar.0.2] conns=[Delta Wye Wye] kVs=[22 0.25 0.25] kVAs=[10 10 10] xhl=2.46 %noloadloss=0.18 %loadloss=2.2 wdg=1 numtaps=4 tap=1.05 maxtap=1.137 mintap=1.028
New Transformer.mv_f0_lv_OAK_STREET phases=3 windings=2 buses=[mv_f0_n2558 mv_f0_lv97_busbar] conns=[delta wye] kVs=[22.0 0.433] kVAs=[200 200] xhl=3.78 %noloadloss=0.13125 %loadloss=1.46875 wdg=1 numtaps=4 tap=1.05 maxtap=1.137 mintap=1.028
New Transformer.mv_f0_lv_ALISTER_3 phases=1 windings=2 buses=[mv_f0_n718.1 mv_f0_lv98_busbar.1] conns=[Wye Wye] kVs=[12.7 0.24] kVAs=[20 20] xhl=2.46 %noloadloss=0.18 %loadloss=2.2 wdg=1 numtaps=4 tap=1.0 maxtap=1.137 mintap=1.028
New Transformer.mv_f0_lv_DUDLEY_7E phases=1 windings=2 buses=[mv_f0_n2758.1 mv_f0_lv99_busbar.1] conns=[Wye Wye] kVs=[12.7 0.24] kVAs=[10 10] xhl=2.46 %noloadloss=0.18 %loadloss=2.2 wdg=1 numtaps=4 tap=1.0 maxtap=1.137 mintap=1.028
New Transformer.mv_f0_lv_CAMP_PUMP_34E phases=1 windings=3 buses=[mv_f0_n2304.2.3 mv_f0_lv100_busbar.1.0 mv_f0_lv100_busbar.0.2] conns=[Delta Wye Wye] kVs=[22 0.25 0.25] kVAs=[10 10 10] xhl=2.46 %noloadloss=0.18 %loadloss=2.2 wdg=1 numtaps=4 tap=1.05 maxtap=1.137 mintap=1.028
New Transformer.mv_f0_lv_NAGAMBIE_79EF phases=3 windings=2 buses=[mv_f0_n2340 mv_f0_lv101_busbar] conns=[delta wye] kVs=[22.0 0.433] kVAs=[100 100] xhl=2.46 %noloadloss=0.18 %loadloss=2.2 wdg=1 numtaps=4 tap=1.05 maxtap=1.137 mintap=1.028
New Transformer.mv_f0_lv_KOBYBOYN_RED_BOX phases=3 windings=2 buses=[mv_f0_n2601 mv_f0_lv102_busbar] conns=[delta wye] kVs=[22.0 0.433] kVAs=[100 100] xhl=2.46 %noloadloss=0.18 %loadloss=2.2 wdg=1 numtaps=4 tap=1.05 maxtap=1.137 mintap=1.028
New Transformer.mv_f0_lv_GOLF_CLUB_2 phases=3 windings=2 buses=[mv_f0_n36 mv_f0_lv103_busbar] conns=[delta wye] kVs=[22.0 0.433] kVAs=[200 200] xhl=3.78 %noloadloss=0.13125 %loadloss=1.46875 wdg=1 numtaps=4 tap=1.025 maxtap=1.137 mintap=1.028
New Transformer.mv_f0_lv_HANCE_2 phases=1 windings=2 buses=[mv_f0_n1947.1 mv_f0_lv104_busbar.1] conns=[Wye Wye] kVs=[12.7 0.24] kVAs=[25 25] xhl=2.46 %noloadloss=0.18 %loadloss=2.2 wdg=1 numtaps=4 tap=1.0 maxtap=1.137 mintap=1.028
New Transformer.mv_f0_lv_BUSHMANS_6 phases=1 windings=2 buses=[mv_f0_n2607.1 mv_f0_lv105_busbar.1] conns=[Wye Wye] kVs=[12.7 0.24] kVAs=[25 25] xhl=2.46 %noloadloss=0.18 %loadloss=2.2 wdg=1 numtaps=4 tap=0.975 maxtap=1.137 mintap=1.028
New Transformer.mv_f0_lv_GOULBURN_ST_53 phases=1 windings=3 buses=[mv_f0_n3913.3.2 mv_f0_lv106_busbar.1.0 mv_f0_lv106_busbar.0.2] conns=[Delta Wye Wye] kVs=[22 0.25 0.25] kVAs=[10 10 10] xhl=2.46 %noloadloss=0.18 %loadloss=2.2 wdg=1 numtaps=4 tap=1.025 maxtap=1.137 mintap=1.028
New Transformer.mv_f0_lv_BAXTER_RD_7 phases=3 windings=2 buses=[mv_f0_n1725 mv_f0_lv107_busbar] conns=[delta wye] kVs=[22.0 0.433] kVAs=[100 100] xhl=2.46 %noloadloss=0.18 %loadloss=2.2 wdg=1 numtaps=4 tap=1.0 maxtap=1.137 mintap=1.028
New Transformer.mv_f0_lv_COORLONG_4 phases=1 windings=3 buses=[mv_f0_n3759.3.2 mv_f0_lv108_busbar.1.0 mv_f0_lv108_busbar.0.2] conns=[Delta Wye Wye] kVs=[22 0.25 0.25] kVAs=[10 10 10] xhl=2.46 %noloadloss=0.18 %loadloss=2.2 wdg=1 numtaps=4 tap=1.025 maxtap=1.137 mintap=1.028
New Transformer.mv_f0_lv_SLOPER phases=1 windings=3 buses=[mv_f0_n1745.2.3 mv_f0_lv109_busbar.1.0 mv_f0_lv109_busbar.0.2] conns=[Delta Wye Wye] kVs=[22 0.25 0.25] kVAs=[10 10 10] xhl=2.46 %noloadloss=0.18 %loadloss=2.2 wdg=1 numtaps=4 tap=1.025 maxtap=1.137 mintap=1.028
New Transformer.mv_f0_lv_ZERAFA_3 phases=1 windings=2 buses=[mv_f0_n2371.1 mv_f0_lv110_busbar.1] conns=[Wye Wye] kVs=[12.7 0.24] kVAs=[20 20] xhl=2.46 %noloadloss=0.18 %loadloss=2.2 wdg=1 numtaps=4 tap=1.0 maxtap=1.137 mintap=1.028
New Transformer.mv_f0_lv_AVENEL_30 phases=1 windings=3 buses=[mv_f0_n1211.1.3 mv_f0_lv111_busbar.1.0 mv_f0_lv111_busbar.0.2] conns=[Delta Wye Wye] kVs=[22 0.25 0.25] kVAs=[25 25 25] xhl=2.46 %noloadloss=0.18 %loadloss=2.2 wdg=1 numtaps=4 tap=1.025 maxtap=1.137 mintap=1.028
New Transformer.mv_f0_lv_DIZON_2 phases=1 windings=2 buses=[mv_f0_n4080.1 mv_f0_lv112_busbar.1] conns=[Wye Wye] kVs=[12.7 0.24] kVAs=[10 10] xhl=2.46 %noloadloss=0.18 %loadloss=2.2 wdg=1 numtaps=4 tap=0.975 maxtap=1.137 mintap=1.028
New Transformer.mv_f0_lv_BUNGARRA_12 phases=1 windings=2 buses=[mv_f0_n680.1 mv_f0_lv113_busbar.1] conns=[Wye Wye] kVs=[12.7 0.24] kVAs=[10 10] xhl=2.46 %noloadloss=0.18 %loadloss=2.2 wdg=1 numtaps=4 tap=1.0 maxtap=1.137 mintap=1.028
New Transformer.mv_f0_lv_BASINGHALL_2 phases=1 windings=3 buses=[mv_f0_n2113.2.1 mv_f0_lv114_busbar.1.0 mv_f0_lv114_busbar.0.2] conns=[Delta Wye Wye] kVs=[22 0.25 0.25] kVAs=[50 50 50] xhl=2.46 %noloadloss=0.18 %loadloss=2.2 wdg=1 numtaps=4 tap=1.025 maxtap=1.137 mintap=1.028
New Transformer.mv_f0_lv_MOORMOOL_6 phases=1 windings=3 buses=[mv_f0_n1487.3.1 mv_f0_lv115_busbar.1.0 mv_f0_lv115_busbar.0.2] conns=[Delta Wye Wye] kVs=[22 0.25 0.25] kVAs=[25 25 25] xhl=2.46 %noloadloss=0.18 %loadloss=2.2 wdg=1 numtaps=4 tap=1.0 maxtap=1.137 mintap=1.028
New Transformer.mv_f0_lv_CAMP_PUMP_17E phases=1 windings=3 buses=[mv_f0_n3655.1.3 mv_f0_lv116_busbar.1.0 mv_f0_lv116_busbar.0.2] conns=[Delta Wye Wye] kVs=[22 0.25 0.25] kVAs=[25 25 25] xhl=2.46 %noloadloss=0.18 %loadloss=2.2 wdg=1 numtaps=4 tap=1.05 maxtap=1.137 mintap=1.028
New Transformer.mv_f0_lv_DOHERTY_3 phases=1 windings=2 buses=[mv_f0_n3947.1 mv_f0_lv117_busbar.1] conns=[Wye Wye] kVs=[12.7 0.24] kVAs=[20 20] xhl=2.46 %noloadloss=0.18 %loadloss=2.2 wdg=1 numtaps=4 tap=0.975 maxtap=1.137 mintap=1.028
New Transformer.mv_f0_lv_LAWSON_P3 phases=1 windings=3 buses=[mv_f0_n3640.3.2 mv_f0_lv118_busbar.1.0 mv_f0_lv118_busbar.0.2] conns=[Delta Wye Wye] kVs=[22 0.25 0.25] kVAs=[16 16 16] xhl=2.46 %noloadloss=0.18 %loadloss=2.2 wdg=1 numtaps=4 tap=1.025 maxtap=1.137 mintap=1.028
New Transformer.mv_f0_lv_BARRABOOL_14 phases=1 windings=3 buses=[mv_f0_n3122.1.3 mv_f0_lv119_busbar.1.0 mv_f0_lv119_busbar.0.2] conns=[Delta Wye Wye] kVs=[22 0.25 0.25] kVAs=[16 16 16] xhl=2.46 %noloadloss=0.18 %loadloss=2.2 wdg=1 numtaps=4 tap=1.025 maxtap=1.137 mintap=1.028