New Loadshape.Load_shape_res_0 npts=48 minterval=30 mult=(file=profiles/Load_shape_res_0.csv) useactual=no
New Loadshape.Load_shape_res_1 npts=48 minterval=30 mult=(file=profiles/Load_shape_res_1.csv) useactual=no
New Loadshape.Load_shape_com_2 npts=48 minterval=30 mult=(file=profiles/Load_shape_com_2.csv) useactual=no
New Loadshape.Load_shape_res_3 npts=48 minterval=30 mult=(file=profiles/Load_shape_res_3.csv) useactual=no
New Loadshape.Load_shape_res_4 npts=48 minterval=30 mult=(file=profiles/Load_shape_res_4.csv) useactual=no
New Loadshape.Load_shape_res_5 npts=48 minterval=30 mult=(file=profiles/Load_shape_res_5.csv) useactual=no
New Loadshape.Load_shape_res_6 npts=48 minterval=30 mult=(file=profiles/Load_shape_res_6.csv) useactual=no
New Loadshape.Load_shape_res_7 npts=48 minterval=30 mult=(file=profiles/Load_shape_res_7.csv) useactual=no
New Loadshape.Load_shape_res_8 npts=48 minterval=30 mult=(file=profiles/Load_shape_res_8.csv) useactual=no
New Loadshape.Load_shape_res_9 npts=48 minterval=30 mult=(file=profiles/Load_shape_res_9.csv) useactual=no
New Loadshape.Load_shape_res_10 npts=48 minterval=30 mult=(file=profiles/Load_shape_res_10.csv) useactual=no
New Loadshape.Load_shape_res_11 npts=48 minterval=30 mult=(file=profiles/Load_shape_res_11.csv) useactual=no
New Loadshape.Load_shape_com_12 npts=48 minterval=30 mult=(file=profiles/Load_shape_com_12.csv) useactual=no
New Loadshape.Load_shape_res_13 npts=48 minterval=30 mult=(file=profiles/Load_shape_res_13.csv) useactual=no
New Loadshape.Load_shape_res_14 npts=48 minterval=30 mult=(file=profiles/Load_shape_res_14.csv) useactual=no
New Loadshape.Load_shape_res_15 npts=48 minterval=30 mult=(file=profiles/Load_shape_res_15.csv) useactual=no
New Loadshape.Load_shape_res_16 npts=48 minterval=30 mult=(file=profiles/Load_shape_res_16.csv) useactual=no
New Loadshape.Load_shape_res_17 npts=48 minterval=30 mult=(file=profiles/Load_shape_res_17.csv) useactual=no
New Loadshape.Load_shape_res_18 npts=48 minterval=30 mult=(file=profiles/Load_shape_res_18.csv) useactual=no
New Loadshape.Load_shape_res_19 npts=48 minterval=30 mult=(file=profiles/Load_shape_res_19.csv) useactual=no
New Loadshape.Load_shape_res_20 npts=48 minterval=30 mult=(file=profiles/Load_shape_res_20.csv) useactual=no
New Loadshape.Load_shape_res_21 npts=48 minterval=30 mult=(file=profiles/Load_shape_res_21.csv) useactual=no
New Loadshape.Load_shape_res_22 npts=48 minterval=30 mult=(file=profiles/Load_shape_res_22.csv) useactual=no
New Loadshape.Load_shape_res_23 npts=48 minterval=30 mult=(file=profiles/Load_shape_res_23.csv) useactual=no
New Loadshape.Load_shape_res_24 npts=48 minterval=30 mult=(file=profiles/Load_shape_res_24.csv) useactual=no
New Loadshape.Load_shape_res_25 npts=48 minterval=30 mult=(file=profiles/Load_shape_res_25.csv) useactual=no
New Loadshape.Load_shape_res_26 npts=48 minterval=30 mult=(file=profiles/Load_shape_res_26.csv) useactual=no
New Loadshape.Load_shape_res_27 npts=48 minterval=30 mult=(file=profiles/Load_shape_res_27.csv) useactual=no
New Loadshape.Load_shape_res_28 npts=48 minterval=30 mult=(file=profiles/Load_shape_res_28.csv) useactual=no
New Loadshape.Load_shape_res_29 npts=48 minterval=30 mult=(file=profiles/Load_shape_res_29.csv) useactual=no
New Loadshape.Load_shape_res_30 npts=48 minterval=30 mult=(file=profiles/Load_shape_res_30.csv) useactual=no
New Loadshape.Load_shape_res_31 npts=48 minterval=30 mult=(file=profiles/Load_shape_res_31.csv) useactual=no
New Loadshape.Load_shape_res_32 npts=48 minterval=30 mult=(file=profiles/Load_shape_res_32.csv) useactual=no
New Loadshape.Load_shape_res_33 npts=48 minterval=30 mult=(file=profiles/Load_shape_res_33.csv) useactual=no
New Loadshape.Load_shape_res_34 npts=48 minterval=30 mult=(file=profiles/Load_shape_res_34.csv) useactual=no
New Loadshape.Load_shape_res_35 npts=48 minterval=30 mult=(file=profiles/Load_shape_res_35.csv) useactual=no
New Loadshape.Load_shape_res_36 npts=48 minterval=30 mult=(file=profiles/Load_shape_res_36.csv) useactual=no
New Loadshape.Load_shape_res_37 npts=48 minterval=30 mult=(file=profiles/Load_shape_res_37.csv) useactual=no
New Loadshape.Load_shape_com_38 npts=48 minterval=30 mult=(file=profiles/Load_shape_com_38.csv) useactual=no
New Loadshape.Load_shape_res_39 npts=48 minterval=30 mult=(file=profiles/Load_shape_res_39.csv) useactual=no
New Loadshape.Load_shape_res_40 npts=48 minterval=30 mult=(file=profiles/Load_shape_res_40.csv) useactual=no
New Loadshape.Load_shape_res_41 npts=48 minterval=30 mult=(file=profiles/Load_shape_res_41.csv) useactual=no
New Loadshape.Load_shape_res_42 npts=48 minterval=30 mult=(file=profiles/Load_shape_res_42.csv) useactual=no
New Loadshape.Load_shape_res_43 npts=48 minterval=30 mult=(file=profiles/Load_shape_res_43.csv) useactual=no
New Loadshape.Load_shape_com_44 npts=48 minterval=30 mult=(file=profiles/Load_shape_com_44.csv) useactual=no
New Loadshape.Load_shape_res_45 npts=48 minterval=30 mult=(file=profiles/Load_shape_res_45.csv) useactual=no
New Loadshape.Load_shape_res_46 npts=48 minterval=30 mult=(file=profiles/Load_shape_res_46.csv) useactual=no
New Loadshape.Load_shape_res_47 npts=48 minterval=30 mult=(file=profiles/Load_shape_res_47.csv) useactual=no
New Loadshape.Load_shape_res_48 npts=48 minterval=30 mult=(file=profiles/Load_shape_res_48.csv) useactual=no
New Loadshape.Load_shape_res_49 npts=48 minterval=30 mult=(file=profiles/Load_shape_res_49.csv) useactual=no
New Loadshape.Load_shape_res_50 npts=48 minterval=30 mult=(file=profiles/Load_shape_res_50.csv) useactual=no
New Loadshape.Load_shape_res_51 npts=48 minterval=30 mult=(file=profiles/Load_shape_res_51.csv) useactual=no
New Loadshape.Load_shape_res_52 npts=48 minterval=30 mult=(file=profiles/Load_shape_res_52.csv) useactual=no
New Loadshape.Load_shape_res_53 npts=48 minterval=30 mult=(file=profiles/Load_shape_res_53.csv) useactual=no
New Loadshape.Load_shape_res_54 npts=48 minterval=30 mult=(file=profiles/Load_shape_res_54.csv) useactual=no
New Loadshape.Load_shape_res_55 npts=48 minterval=30 mult=(file=profiles/Load_shape_res_55.csv) useactual=no
New Loadshape.Load_shape_res_56 npts=48 minterval=30 mult=(file=profiles/Load_shape_res_56.csv) useactual=no
New Loadshape.Load_shape_res_57 npts=48 minterval=30 mult=(file=profiles/Load_shape_res_57.csv) useactual=no
New Loadshape.Load_shape_res_58 npts=48 minterval=30 mult=(file=profiles/Load_shape_res_58.csv) useactual=no
New Loadshape.Load_shape_res_59 npts=48 minterval=30 mult=(file=profiles/Load_shape_res_59.csv) useactual=no
New Loadshape.Load_shape_res_60 npts=48 minterval=30 mult=(file=profiles/Load_shape_res_60.csv) useactual=no
New Loadshape.Load_shape_res_61 npts=48 minterval=30 mult=(file=profiles/Load_shape_res_61.csv) useactual=no
New Loadshape.Load_shape_res_62 npts=48 minterval=30 mult=(file=profiles/Load_shape_res_62.csv) useactual=no
New Loadshape.Load_shape_res_63 npts=48 minterval=30 mult=(file=profiles/Load_shape_res_63.csv) useactual=no
New Loadshape.Load_shape_res_64 npts=48 minterval=30 mult=(file=profiles/Load_shape_res_64.csv) useactual=no
New Loadshape.Load_shape_res_65 npts=48 minterval=30 mult=(file=profiles/Load_shape_res_65.csv) useactual=no
New Loadshape.Load_shape_res_66 npts=48 minterval=30 mult=(file=profiles/Load_shape_res_66.csv) useactual=no
New Loadshape.Load_shape_res_67 npts=48 minterval=30 mult=(file=profiles/Load_shape_res_67.csv) useactual=no
New Loadshape.Load_shape_res_68 npts=48 minterval=30 mult=(file=profiles/Load_shape_res_68.csv) useactual=no
New Loadshape.Load_shape_res_69 npts=48 minterval=30 mult=(file=profiles/Load_shape_res_69.csv) useactual=no
New Loadshape.Load_shape_res_70 npts=48 minterval=30 mult=(file=profiles/Load_shape_res_70.csv) useactual=no
New Loadshape.Load_shape_res_71 npts=48 minterval=30 mult=(file=profiles/Load_shape_res_71.csv) useactual=no
New Loadshape.Load_shape_res_72 npts=48 minterval=30 mult=(file=profiles/Load_shape_res_72.csv) useactual=no
New Loadshape.Load_shape_res_73 npts=48 minterval=30 mult=(file=profiles/Load_shape_res_73.csv) useactual=no
New Loadshape.Load_shape_res_74 npts=48 minterval=30 mult=(file=profiles/Load_shape_res_74.csv) useactual=no
New Loadshape.Load_shape_res_75 npts=48 minterval=30 mult=(file=profiles/Load_shape_res_75.csv) useactual=no
New Loadshape.Load_shape_res_76 npts=48 minterval=30 mult=(file=profiles/Load_shape_res_76.csv) useactual=no
New Loadshape.Load_shape_res_77 npts=48 minterval=30 mult=(file=profiles/Load_shape_res_77.csv) useactual=no
New Loadshape.Load_shape_res_78 npts=48 minterval=30 mult=(file=profiles/Load_shape_res_78.csv) useactual=no
New Loadshape.Load_shape_res_79 npts=48 minterval=30 mult=(file=profiles/Load_shape_res_79.csv) useactual=no
New Loadshape.Load_shape_res_80 npts=48 minterval=30 mult=(file=profiles/Load_shape_res_80.csv) useactual=no
New Loadshape.Load_shape_res_81 npts=48 minterval=30 mult=(file=profiles/Load_shape_res_81.csv) useactual=no
New Loadshape.Load_shape_res_82 npts=48 minterval=30 mult=(file=profiles/Load_shape_res_82.csv) useactual=no
New Loadshape.Load_shape_res_83 npts=48 minterval=30 mult=(file=profiles/Load_shape_res_83.csv) useactual=no
New Loadshape.Load_shape_res_84 npts=48 minterval=30 mult=(file=profiles/Load_shape_res_84.csv) useactual=no
New Loadshape.Load_shape_res_85 npts=48 minterval=30 mult=(file=profiles/Load_shape_res_85.csv) useactual=no
New Loadshape.Load_shape_res_86 npts=48 minterval=30 mult=(file=profiles/Load_shape_res_86.csv) useactual=no
New Loadshape.Load_shape_res_87 npts=48 minterval=30 mult=(file=profiles/Load_shape_res_87.csv) useactual=no
New Loadshape.Load_shape_res_88 npts=48 minterval=30 mult=(file=profiles/Load_shape_res_88.csv) useactual=no
New Loadshape.Load_shape_res_89 npts=48 minterval=30 mult=(file=profiles/Load_shape_res_89.csv) useactual=no
New Loadshape.Load_shape_res_90 npts=48 minterval=30 mult=(file=profiles/Load_shape_res_90.csv) useactual=no
New Loadshape.Load_shape_res_91 npts=48 minterval=30 mult=(file=profiles/Load_shape_res_91.csv) useactual=no
New Loadshape.Load_shape_res_92 npts=48 minterval=30 mult=(file=profiles/Load_shape_res_92.csv) useactual=no
New Loadshape.Load_shape_res_93 npts=48 minterval=30 mult=(file=profiles/Load_shape_res_93.csv) useactual=no
New Loadshape.Load_shape_res_94 npts=48 minterval=30 mult=(file=profiles/Load_shape_res_94.csv) useactual=no
New Loadshape.Load_shape_res_95 npts=48 minterval=30 mult=(file=profiles/Load_shape_res_95.csv) useactual=no
New Loadshape.Load_shape_res_96 npts=48 minterval=30 mult=(file=profiles/Load_shape_res_96.csv) useactual=no
New Loadshape.Load_shape_res_97 npts=48 minterval=30 mult=(file=profiles/Load_shape_res_97.csv) useactual=no
New Loadshape.Load_shape_res_98 npts=48 minterval=30 mult=(file=profiles/Load_shape_res_98.csv) useactual=no
New Loadshape.Load_shape_res_99 npts=48 minterval=30 mult=(file=profiles/Load_shape_res_99.csv) useactual=no
New Loadshape.Load_shape_res_100 npts=48 minterval=30 mult=(file=profiles/Load_shape_res_100.csv) useactual=no
New Loadshape.Load_shape_res_101 npts=48 minterval=30 mult=(file=profiles/Load_shape_res_101.csv) useactual=no
New Loadshape.Load_shape_res_102 npts=48 minterval=30 mult=(file=profiles/Load_shape_res_102.csv) useactual=no
New Loadshape.Load_shape_res_103 npts=48 minterval=30 mult=(file=profiles/Load_shape_res_103.csv) useactual=no
New Loadshape.Load_shape_res_104 npts=48 minterval=30 mult=(file=profiles/Load_shape_res_104.csv) useactual=no
New Loadshape.Load_shape_res_105 npts=48 minterval=30 mult=(file=profiles/Load_shape_res_105.csv) useactual=no
New Loadshape.Load_shape_res_106 npts=48 minterval=30 mult=(file=profiles/Load_shape_res_106.csv) useactual=no
New Loadshape.Load_shape_res_107 npts=48 minterval=30 mult=(file=profiles/Load_shape_res_107.csv) useactual=no
New Loadshape.Load_shape_res_108 npts=48 minterval=30 mult=(file=profiles/Load_shape_res_108.csv) useactual=no
New Loadshape.Load_shape_res_109 npts=48 minterval=30 mult=(file=profiles/Load_shape_res_109.csv) useactual=no
New Loadshape.Load_shape_res_110 npts=48 minterval=30 mult=(file=profiles/Load_shape_res_110.csv) useactual=no
New Loadshape.Load_shape_res_111 npts=48 minterval=30 mult=(file=profiles/Load_shape_res_111.csv) useactual=no
New Loadshape.Load_shape_res_112 npts=48 minterval=30 mult=(file=profiles/Load_shape_res_112.csv) useactual=no
New Loadshape.Load_shape_res_113 npts=48 minterval=30 mult=(file=profiles/Load_shape_res_113.csv) useactual=no
New Loadshape.Load_shape_res_114 npts=48 minterval=30 mult=(file=profiles/Load_shape_res_114.csv) useactual=no
New Loadshape.Load_shape_res_115 npts=48 minterval=30 mult=(file=profiles/Load_shape_res_115.csv) useactual=no
New Loadshape.Load_shape_res_116 npts=48 minterval=30 mult=(file=profiles/Load_shape_res_116.csv) useactual=no
New Loadshape.Load_shape_res_117 npts=48 minterval=30 mult=(file=profiles/Load_shape_res_117.csv) useactual=no
New Loadshape.Load_shape_res_118 npts=48 minterval=30 mult=(file=profiles/Load_shape_res_118.csv) useactual=no
New Loadshape.Load_shape_res_119 npts=48 minterval=30 mult=(file=profiles/Load_shape_res_119.csv) useactual=no
New Loadshape.Load_shape_res_120 npts=48 minterval=30 mult=(file=profiles/Load_shape_res_120.csv) useactual=no
New Loadshape.Load_shape_res_121 npts=48 minterval=30 mult=(file=profiles/Load_shape_res_121.csv) useactual=no
New Loadshape.Load_shape_res_122 npts=48 minterval=30 mult=(file=profiles/Load_shape_res_122.csv) useactual=no
New Loadshape.Load_shape_res_123 npts=48 minterval=30 mult=(file=profiles/Load_shape_res_123.csv) useactual=no
New Loadshape.Load_shape_res_124 npts=48 minterval=30 mult=(file=profiles/Load_shape_res_124.csv) useactual=no
New Loadshape.Load_shape_res_125 npts=48 minterval=30 mult=(file=profiles/Load_shape_res_125.csv) useactual=no
New Loadshape.Load_shape_res_126 npts=48 minterval=30 mult=(file=profiles/Load_shape_res_126.csv) useactual=no
New Loadshape.Load_shape_res_127 npts=48 minterval=30 mult=(file=profiles/Load_shape_res_127.csv) useactual=no
New Loadshape.Load_shape_res_128 npts=48 minterval=30 mult=(file=profiles/Load_shape_res_128.csv) useactual=no
New Loadshape.Load_shape_res_129 npts=48 minterval=30 mult=(file=profiles/Load_shape_res_129.csv) useactual=no
New Loadshape.Load_shape_res_130 npts=48 minterval=30 mult=(file=profiles/Load_shape_res_130.csv) useactual=no
New Loadshape.Load_shape_res_131 npts=48 minterval=30 mult=(file=profiles/Load_shape_res_131.csv) useactual=no
New Loadshape.Load_shape_res_132 npts=48 minterval=30 mult=(file=profiles/Load_shape_res_132.csv) useactual=no
New Loadshape.Load_shape_res_133 npts=48 minterval=30 mult=(file=profiles/Load_shape_res_133.csv) useactual=no
New Loadshape.Load_shape_res_134 npts=48 minterval=30 mult=(file=profiles/Load_shape_res_134.csv) useactual=no
New Loadshape.Load_shape_res_135 npts=48 minterval=30 mult=(file=profiles/Load_shape_res_135.csv) useactual=no
New Loadshape.Load_shape_res_136 npts=48 minterval=30 mult=(file=profiles/Load_shape_res_136.csv) useactual=no
New Loadshape.Load_shape_res_137 npts=48 minterval=30 mult=(file=profiles/Load_shape_res_137.csv) useactual=no
New Loadshape.Load_shape_res_138 npts=48 minterval=30 mult=(file=profiles/Load_shape_res_138.csv) useactual=no
New Loadshape.Load_shape_res_139 npts=48 minterval=30 mult=(file=profiles/Load_shape_res_139.csv) useactual=no
New Loadshape.Load_shape_res_140 npts=48 minterval=30 mult=(file=profiles/Load_shape_res_140.csv) useactual=no
New Loadshape.Load_shape_res_141 npts=48 minterval=30 mult=(file=profiles/Load_shape_res_141.csv) useactual=no
New Loadshape.Load_shape_res_142 npts=48 minterval=30 mult=(file=profiles/Load_shape_res_142.csv) useactual=no
New Loadshape.Load_shape_res_143 npts=48 minterval=30 mult=(file=profiles/Load_shape_res_143.csv) useactual=no
New Loadshape.Load_shape_res_144 npts=48 minterval=30 mult=(file=profiles/Load_shape_res_144.csv) useactual=no
New Loadshape.Load_shape_res_145 npts=48 minterval=30 mult=(file=profiles/Load_shape_res_145.csv) useactual=no
New Loadshape.Load_shape_res_146 npts=48 minterval=30 mult=(file=profiles/Load_shape_res_146.csv) useactual=no
New Loadshape.Load_shape_res_147 npts=48 minterval=30 mult=(file=profiles/Load_shape_res_147.csv) useactual=no
New Loadshape.Load_shape_res_148 npts=48 minterval=30 mult=(file=profiles/Load_shape_res_148.csv) useactual=no
New Loadshape.Load_shape_res_149 npts=48 minterval=30 mult=(file=profiles/Load_shape_res_149.csv) useactual=no
New Loadshape.Load_shape_res_150 npts=48 minterval=30 mult=(file=profiles/Load_shape_res_150.csv) useactual=no
New Loadshape.Load_shape_res_151 npts=48 minterval=30 mult=(file=profiles/Load_shape_res_151.csv) useactual=no
New Loadshape.Load_shape_res_152 npts=48 minterval=30 mult=(file=profiles/Load_shape_res_152.csv) useactual=no
New Loadshape.Load_shape_res_153 npts=48 minterval=30 mult=(file=profiles/Load_shape_res_153.csv) useactual=no
New Loadshape.Load_shape_res_154 npts=48 minterval=30 mult=(file=profiles/Load_shape_res_154.csv) useactual=no
New Loadshape.Load_shape_res_155 npts=48 minterval=30 mult=(file=profiles/Load_shape_res_155.csv) useactual=no
New Loadshape.Load_shape_res_156 npts=48 minterval=30 mult=(file=profiles/Load_shape_res_156.csv) useactual=no
New Loadshape.Load_shape_res_157 npts=48 minterval=30 mult=(file=profiles/Load_shape_res_157.csv) useactual=no
New Loadshape.Load_shape_res_158 npts=48 minterval=30 mult=(file=profiles/Load_shape_res_158.csv) useactual=no
New Loadshape.Load_shape_res_159 npts=48 minterval=30 mult=(file=profiles/Load_shape_res_159.csv) useactual=no
New Loadshape.Load_shape_res_160 npts=48 minterval=30 mult=(file=profiles/Load_shape_res_160.csv) useactual=no
New Loadshape.Load_shape_res_161 npts=48 minterval=30 mult=(file=profiles/Load_shape_res_161.csv) useactual=no
New Loadshape.Load_shape_res_162 npts=48 minterval=30 mult=(file=profiles/Load_shape_res_162.csv) useactual=no
New Loadshape.Load_shape_res_163 npts=48 minterval=30 mult=(file=profiles/Load_shape_res_163.csv) useactual=no
New Loadshape.Load_shape_res_164 npts=48 minterval=30 mult=(file=profiles/Load_shape_res_164.csv) useactual=no
New Loadshape.Load_shape_res_165 npts=48 minterval=30 mult=(file=profiles/Load_shape_res_165.csv) useactual=no
New Loadshape.Load_shape_res_166 npts=48 minterval=30 mult=(file=profiles/Load_shape_res_166.csv) useactual=no
New Loadshape.Load_shape_res_167 npts=48 minterval=30 mult=(file=profiles/Load_shape_res_167.csv) useactual=no
New Loadshape.Load_shape_res_168 npts=48 minterval=30 mult=(file=profiles/Load_shape_res_168.csv) useactual=no
New Loadshape.Load_shape_res_169 npts=48 minterval=30 mult=(file=profiles/Load_shape_res_169.csv) useactual=no
New Loadshape.Load_shape_res_170 npts=48 minterval=30 mult=(file=profiles/Load_shape_res_170.csv) useactual=no
New Loadshape.Load_shape_res_171 npts=48 minterval=30 mult=(file=profiles/Load_shape_res_171.csv) useactual=no
New Loadshape.Load_shape_res_172 npts=48 minterval=30 mult=(file=profiles/Load_shape_res_172.csv) useactual=no
New Loadshape.Load_shape_res_173 npts=48 minterval=30 mult=(file=profiles/Load_shape_res_173.csv) useactual=no
New Loadshape.Load_shape_res_174 npts=48 minterval=30 mult=(file=profiles/Load_shape_res_174.csv) useactual=no
New Loadshape.Load_shape_res_175 npts=48 minterval=30 mult=(file=profiles/Load_shape_res_175.csv) useactual=no
New Loadshape.Load_shape_res_176 npts=48 minterval=30 mult=(file=profiles/Load_shape_res_176.csv) useactual=no
New Loadshape.Load_shape_res_177 npts=48 minterval=30 mult=(file=profiles/Load_shape_res_177.csv) useactual=no
New Loadshape.Load_shape_res_178 npts=48 minterval=30 mult=(file=profiles/Load_shape_res_178.csv) useactual=no
New Loadshape.Load_shape_res_179 npts=48 minterval=30 mult=(file=profiles/Load_shape_res_179.csv) useactual=no
New Loadshape.Load_shape_res_180 npts=48 minterval=30 mult=(file=profiles/Load_shape_res_180.csv) useactual=no
New Loadshape.Load_shape_res_181 npts=48 minterval=30 mult=(file=profiles/Load_shape_res_181.csv) useactual=no
New Loadshape.Load_shape_res_182 npts=48 minterval=30 mult=(file=profiles/Load_shape_res_182.csv) useactual=no
New Loadshape.Load_shape_res_183 npts=48 minterval=30 mult=(file=profiles/Load_shape_res_183.csv) useactual=no
New Loadshape.Load_shape_res_184 npts=48 minterval=30 mult=(file=profiles/Load_shape_res_184.csv) useactual=no
New Loadshape.Load_shape_res_185 npts=48 minterval=30 mult=(file=profiles/Load_shape_res_185.csv) useactual=no
New Loadshape.Load_shape_res_186 npts=48 minterval=30 mult=(file=profiles/Load_shape_res_186.csv) useactual=no
New Loadshape.Load_shape_com_187 npts=48 minterval=30 mult=(file=profiles/Load_shape_com_187.csv) useactual=no
New Loadshape.Load_shape_res_188 npts=48 minterval=30 mult=(file=profiles/Load_shape_res_188.csv) useactual=no
New Loadshape.Load_shape_res_189 npts=48 minterval=30 mult=(file=profiles/Load_shape_res_189.csv) useactual=no
New Loadshape.Load_shape_res_190 npts=48 minterval=30 mult=(file=profiles/Load_shape_res_190.csv) useactual=no
New Loadshape.Load_shape_res_191 npts=48 minterval=30 mult=(file=profiles/Load_shape_res_191.csv) useactual=no
New Loadshape.Load_shape_res_192 npts=48 minterval=30 mult=(file=profiles/Load_shape_res_192.csv) useactual=no
New Loadshape.Load_shape_res_193 npts=48 minterval=30 mult=(file=profiles/Load_shape_res_193.csv) useactual=no
New Loadshape.Load_shape_res_194 npts=48 minterval=30 mult=(file=profiles/Load_shape_res_194.csv) useactual=no
New Loadshape.Load_shape_res_195 npts=48 minterval=30 mult=(file=profiles/Load_shape_res_195.csv) useactual=no
New Loadshape.Load_shape_res_196 npts=48 minterval=30 mult=(file=profiles/Load_shape_res_196.csv) useactual=no
New Loadshape.Load_shape_res_197 npts=48 minterval=30 mult=(file=profiles/Load_shape_res_197.csv) useactual=no
New Loadshape.Load_shape_res_198 npts=48 minterval=30 mult=(file=profiles/Load_shape_res_198.csv) useactual=no
New Loadshape.Load_shape_res_199 npts=48 minterval=30 mult=(file=profiles/Load_shape_res_199.csv) useactual=no
New Loadshape.Load_shape_res_200 npts=48 minterval=30 mult=(file=profiles/Load_shape_res_200.csv) useactual=no
New Loadshape.Load_shape_res_201 npts=48 minterval=30 mult=(file=profiles/Load_shape_res_201.csv) useactual=no
New Loadshape.Load_shape_res_202 npts=48 minterval=30 mult=(file=profiles/Load_shape_res_202.csv) useactual=no
New Loadshape.Load_shape_res_203 npts=48 minterval=30 mult=(file=profiles/Load_shape_res_203.csv) useactual=no
New Loadshape.Load_shape_res_204 npts=48 minterval=30 mult=(file=profiles/Load_shape_res_204.csv) useactual=no
New Loadshape.Load_shape_res_205 npts=48 minterval=30 mult=(file=profiles/Load_shape_res_205.csv) useactual=no
New Loadshape.Load_shape_res_206 npts=48 minterval=30 mult=(file=profiles/Load_shape_res_206.csv) useactual=no
New Loadshape.Load_shape_res_207 npts=48 minterval=30 mult=(file=profiles/Load_shape_res_207.csv) useactual=no
New Loadshape.Load_shape_res_208 npts=48 minterval=30 mult=(file=profiles/Load_shape_res_208.csv) useactual=no
New Loadshape.Load_shape_res_209 npts=48 minterval=30 mult=(file=profiles/Load_shape_res_209.csv) useactual=no
New Loadshape.Load_shape_res_210 npts=48 minterval=30 mult=(file=profiles/Load_shape_res_210.csv) useactual=no
New Loadshape.Load_shape_res_211 npts=48 minterval=30 mult=(file=profiles/Load_shape_res_211.csv) useactual=no
New Loadshape.Load_shape_res_212 npts=48 minterval=30 mult=(file=profiles/Load_shape_res_212.csv) useactual=no
New Loadshape.Load_shape_res_213 npts=48 minterval=30 mult=(file=profiles/Load_shape_res_213.csv) useactual=no
New Loadshape.Load_shape_res_214 npts=48 minterval=30 mult=(file=profiles/Load_shape_res_214.csv) useactual=no
New Loadshape.Load_shape_res_215 npts=48 minterval=30 mult=(file=profiles/Load_shape_res_215.csv) useactual=no
New Loadshape.Load_shape_res_216 npts=48 minterval=30 mult=(file=profiles/Load_shape_res_216.csv) useactual=no
New Loadshape.Load_shape_res_217 npts=48 minterval=30 mult=(file=profiles/Load_shape_res_217.csv) useactual=no
New Loadshape.Load_shape_res_218 npts=48 minterval=30 mult=(file=profiles/Load_shape_res_218.csv) useactual=no
New Loadshape.Load_shape_res_219 npts=48 minterval=30 mult=(file=profiles/Load_shape_res_219.csv) useactual=no
New Loadshape.Load_shape_res_220 npts=48 minterval=30 mult=(file=profiles/Load_shape_res_220.csv) useactual=no
New Loadshape.Load_shape_res_221 npts=48 minterval=30 mult=(file=profiles/Load_shape_res_221.csv) useactual=no
New Loadshape.Load_shape_res_222 npts=48 minterval=30 mult=(file=profiles/Load_shape_res_222.csv) useactual=no
New Loadshape.Load_shape_res_223 npts=48 minterval=30 mult=(file=profiles/Load_shape_res_223.csv) useactual=no
New Loadshape.Load_shape_res_224 npts=48 minterval=30 mult=(file=profiles/Load_shape_res_224.csv) useactual=no
New Loadshape.Load_shape_res_225 npts=48 minterval=30 mult=(file=profiles/Load_shape_res_225.csv) useactual=no
New Loadshape.Load_shape_res_226 npts=48 minterval=30 mult=(file=profiles/Load_shape_res_226.csv) useactual=no
New Loadshape.Load_shape_res_227 npts=48 minterval=30 mult=(file=profiles/Load_shape_res_227.csv) useactual=no
New Loadshape.Load_shape_res_228 npts=48 minterval=30 mult=(file=profiles/Load_shape_res_228.csv) useactual=no
New Loadshape.Load_shape_res_229 npts=48 minterval=30 mult=(file=profiles/Load_shape_res_229.csv) useactual=no
New Loadshape.Load_shape_res_230 npts=48 minterval=30 mult=(file=profiles/Load_shape_res_230.csv) useactual=no
New Loadshape.Load_shape_res_231 npts=48 minterval=30 mult=(file=profiles/Load_shape_res_231.csv) useactual=no
New Loadshape.Load_shape_res_232 npts=48 minterval=30 mult=(file=profiles/Load_shape_res_232.csv) useactual=no
New Loadshape.Load_shape_res_233 npts=48 minterval=30 mult=(file=profiles/Load_shape_res_233.csv) useactual=no
New Loadshape.Load_shape_res_234 npts=48 minterval=30 mult=(file=profiles/Load_shape_res_234.csv) useactual=no
New Loadshape.Load_shape_res_235 npts=48 minterval=30 mult=(file=profiles/Load_shape_res_235.csv) useactual=no
New Loadshape.Load_shape_res_236 npts=48 minterval=30 mult=(file=profiles/Load_shape_res_236.csv) useactual=no
New Loadshape.Load_shape_com_237 npts=48 minterval=30 mult=(file=profiles/Load_shape_com_237.csv) useactual=no
New Loadshape.Load_shape_res_238 npts=48 minterval=30 mult=(file=profiles/Load_shape_res_238.csv) useactual=no
New Loadshape.Load_shape_res_239 npts=48 minterval=30 mult=(file=profiles/Load_shape_res_239.csv) useactual=no
New Loadshape.Load_shape_res_240 npts=48 minterval=30 mult=(file=profiles/Load_shape_res_240.csv) useactual=no
New Loadshape.Load_shape_res_241 npts=48 minterval=30 mult=(file=profiles/Load_shape_res_241.csv) useactual=no
New Loadshape.Load_shape_res_242 npts=48 minterval=30 mult=(file=profiles/Load_shape_res_242.csv) useactual=no
New Loadshape.Load_shape_res_243 npts=48 minterval=30 mult=(file=profiles/Load_shape_res_243.csv) useactual=no
New Loadshape.Load_shape_res_244 npts=48 minterval=30 mult=(file=profiles/Load_shape_res_244.csv) useactual=no
New Loadshape.Load_shape_res_245 npts=48 minterval=30 mult=(file=profiles/Load_shape_res_245.csv) useactual=no
New Loadshape.Load_shape_res_246 npts=48 minterval=30 mult=(file=profiles/Load_shape_res_246.csv) useactual=no
New Loadshape.Load_shape_res_247 npts=48 minterval=30 mult=(file=profiles/Load_shape_res_247.csv) useactual=no
New Loadshape.Load_shape_res_248 npts=48 minterval=30 mult=(file=profiles/Load_shape_res_248.csv) useactual=no
New Loadshape.Load_shape_res_249 npts=48 minterval=30 mult=(file=profiles/Load_shape_res_249.csv) useactual=no
New Loadshape.Load_shape_res_250 npts=48 minterval=30 mult=(file=profiles/Load_shape_res_250.csv) useactual=no
New Loadshape.Load_shape_res_251 npts=48 minterval=30 mult=(file=profiles/Load_shape_res_251.csv) useactual=no
New Loadshape.Load_shape_res_252 npts=48 minterval=30 mult=(file=profiles/Load_shape_res_252.csv) useactual=no
New Loadshape.Load_shape_com_253 npts=48 minterval=30 mult=(file=profiles/Load_shape_com_253.csv) useactual=no
New Loadshape.Load_shape_res_254 npts=48 minterval=30 mult=(file=profiles/Load_shape_res_254.csv) useactual=no
New Loadshape.Load_shape_res_255 npts=48 minterval=30 mult=(file=profiles/Load_shape_res_255.csv) useactual=no
New Loadshape.Load_shape_res_256 npts=48 minterval=30 mult=(file=profiles/Load_shape_res_256.csv) useactual=no
New Loadshape.Load_shape_res_257 npts=48 minterval=30 mult=(file=profiles/Load_shape_res_257.csv) useactual=no
New Loadshape.Load_shape_res_258 npts=48 minterval=30 mult=(file=profiles/Load_shape_res_258.csv) useactual=no
New Loadshape.Load_shape_res_259 npts=48 minterval=30 mult=(file=profiles/Load_shape_res_259.csv) useactual=no
New Loadshape.Load_shape_res_260 npts=48 minterval=30 mult=(file=profiles/Load_shape_res_260.csv) useactual=no
New Loadshape.Load_shape_res_261 npts=48 minterval=30 mult=(file=profiles/Load_shape_res_261.csv) useactual=no
New Loadshape.Load_shape_res_262 npts=48 minterval=30 mult=(file=profiles/Load_shape_res_262.csv) useactual=no
New Loadshape.Load_shape_res_263 npts=48 minterval=30 mult=(file=profiles/Load_shape_res_263.csv) useactual=no
New Loadshape.Load_shape_res_264 npts=48 minterval=30 mult=(file=profiles/Load_shape_res_264.csv) useactual=no
New Loadshape.Load_shape_res_265 npts=48 minterval=30 mult=(file=profiles/Load_shape_res_265.csv) useactual=no
New Loadshape.Load_shape_res_266 npts=48 minterval=30 mult=(file=profiles/Load_shape_res_266.csv) useactual=no
New Loadshape.Load_shape_res_267 npts=48 minterval=30 mult=(file=profiles/Load_shape_res_267.csv) useactual=no
New Loadshape.Load_shape_res_268 npts=48 minterval=30 mult=(file=profiles/Load_shape_res_268.csv) useactual=no
New Loadshape.Load_shape_res_269 npts=48 minterval=30 mult=(file=profiles/Load_shape_res_269.csv) useactual=no
New Loadshape.Load_shape_res_270 npts=48 minterval=30 mult=(file=profiles/Load_shape_res_270.csv) useactual=no
New Loadshape.Load_shape_res_271 npts=48 minterval=30 mult=(file=profiles/Load_shape_res_271.csv) useactual=no